<?xml version="1.0" encoding="UTF-8"?>

<!-- generated on 2025-10-26 14:35:00.175803 by osmWebWizard.py v1_24_0+0000-b72eb3fabc8
<configuration>
    <net-file value="C:\Program Files (x86)\Eclipse\Sumo\tools\2025-10-26-14-34-38\osm.net.xml.gz"/>
    <output-trip-file value="C:\Program Files (x86)\Eclipse\Sumo\tools\2025-10-26-14-34-38\osm.pedestrian.trips.xml"/>
    <route-file value="C:\Program Files (x86)\Eclipse\Sumo\tools\2025-10-26-14-34-38\osm.pedestrian.rou.xml"/>
    <pedestrians value="True"/>
    <prefix value="ped"/>
    <vehicle-class value="pedestrian"/>
    <fringe-factor value="1"/>
    <seed value="46"/>
    <max-distance value="2000.0"/>
    <insertion-density value="10.0"/>
</configuration>
-->

<!-- generated on 2025-10-26 14:34:59 by Eclipse SUMO duarouter Version 1.24.0
<duarouterConfiguration xmlns:xsi="http://www.w3.org/2001/XMLSchema-instance" xsi:noNamespaceSchemaLocation="http://sumo.dlr.de/xsd/duarouterConfiguration.xsd">

    <input>
        <net-file value="C:\Program Files (x86)\Eclipse\Sumo\tools\2025-10-26-14-34-38\osm.net.xml.gz"/>
        <route-files value="C:\Program Files (x86)\Eclipse\Sumo\tools\2025-10-26-14-34-38\osm.pedestrian.trips.xml"/>
    </input>

    <output>
        <output-file value="C:\Program Files (x86)\Eclipse\Sumo\tools\2025-10-26-14-34-38\osm.pedestrian.rou.xml"/>
        <alternatives-output value="NUL"/>
    </output>

    <time>
        <begin value="0.0"/>
        <end value="3600.0"/>
    </time>

    <report>
        <no-warnings value="true"/>
        <ignore-errors value="true"/>
        <no-step-log value="true"/>
    </report>

</duarouterConfiguration>
-->

<routes xmlns:xsi="http://www.w3.org/2001/XMLSchema-instance" xsi:noNamespaceSchemaLocation="http://sumo.dlr.de/xsd/routes_file.xsd">
    <vType id="ped_pedestrian" vClass="pedestrian"/>
    <person id="ped0" type="ped_pedestrian" depart="0.00">
        <walk edges="868435449#2 868435449#1 868435449#5 970347263#0 -49934803#3 -49934803#2 -49934803#0 -4253271#2 557495163 4253264#0 40245627 970388082#0 857317526#1 857317528#1 1007534589 131665279#3 131665279#2 131665279#1 131665279#0 594677130 1341547870#0 1341547870#1 1341547870#2 138545790#1 138545790#2 138545790#3 138545790#4 138545790#5 138545790#6 138545790#7 970317673#0 970317673#1 764257495#1 1180353221 143822198 671964047#1 1340362668"/>
    </person>
    <person id="ped1" type="ped_pedestrian" depart="7.78">
        <walk edges="343251278#0 1334583239#1 1334583239#2 1341547864#1 1341547863 1341547869#1 1341547869#0 1341547872#1 131664905#5 131664905#4 131664905#3 131664905#2 131664905#1 131664905#0 138545790#1 138545788#1 138545788#0 1343522645 354041364#5 593836742#1 680050658 681098587#1 681098587#2 878165855#0 878165855#1 849005538"/>
    </person>
    <person id="ped2" type="ped_pedestrian" depart="15.55">
        <walk edges="1308890806 1184460094#1 1184460096 1002735993#0 1002735993#1 -997309342#1 -997309342#2 -997309342#3 1184460100 997309341#1 825288050#1 143822199#1 1184460101 647892783#0 647892783#1 671964047#0 671964047#1 143822198 668775167#1 673731512#1 1339480498#1 1339480498#0 1339477844#1 1339477843#1 1339477842#2 1339477842#1 1339477841#1 1339477840#3 1339477840#2 1339477840#1 1339480502 1339480500#0 1339480500#1 1339480501 1351264052#1 1351264051#1 1339477833#1 643025284#1 26834303#1"/>
    </person>
    <person id="ped3" type="ped_pedestrian" depart="23.33">
        <walk edges="330197785 330197779#1 330197775 330197774 330197783#0 328936387#3 1308890820 1308890821#1 671964050#4 671964050#3 671964050#2 671964050#1 647892786 671964047#0 671964047#1 143822198 647892779#1 354041372#0 354041372#1 764257492#1 970317674 354041364#0 845163827 680050670#0 680050670#1 680050670#2 878165849#0 680050674#0 680050674#1 878165853 848060320 90028239#3"/>
    </person>
    <person id="ped4" type="ped_pedestrian" depart="31.11">
        <walk edges="-235993022#1 825288047#0 668775167#1 673731512#1 1339480498#1 1339480498#0 1339477844#1 1339477843#1 1339477842#2 1339477842#1 1339477841#1 1339477840#3 1339477840#2 1339477840#1 1339480502 1339480500#0 1339480500#1 1339480501 1351264052#1 -429195620#0"/>
    </person>
    <person id="ped5" type="ped_pedestrian" depart="38.88">
        <walk edges="1336852403#1 1336852399#2 1336852399#1 1336852399#0 886584706#0 1336864287 237209965#8 1253747736 1253747735 1024906206#0 -4253295#4 4253295#4 1024906206#1 1418606140#1 1418606140#0 1253747488 970388085#0 970388085#1 970317676 354041364#6 1343522645 138545788#0 138545788#1 138545790#2 138545790#3 138545790#4 138545790#5 845083350#1 845083349 845083352#0"/>
    </person>
    <person id="ped6" type="ped_pedestrian" depart="46.66">
        <walk edges="845163816 90028607 105616183#1 105616183#0"/>
    </person>
    <person id="ped7" type="ped_pedestrian" depart="54.44">
        <walk edges="877703047 1374243093 1338916967#4 1338916967#5 1232696862#0 970388083#1 970388082#1 970388082#0 970388081#1 970388081#0 1253747492#0 1253747492#1 1253747492#2 1253424577#1 1338975871 1007519985#1 1341548987#2 40245625#1 40245625#0 40245622#0 76562953#0 306452433#1 306452427#0"/>
    </person>
    <person id="ped8" type="ped_pedestrian" depart="62.21">
        <walk edges="970116491#2 970116492#0 -49934840#0 970116494 3128262 970137801 970137802#0 970137802#1 970137800 1334583246#2 1334583247#1 1334583247#0 1334583245#0 1232962011#1 1232962011#0 1232962009#1 1232962009#0 354041359#1 354041359#0 970317673#0 131668735#1 1232962013 970317674 1328823024 1328823027#2 1328823027#1 1328823027#0 1328823026#0 1328823026#1 237209965#1 770889249#1 886584707#5"/>
    </person>
    <person id="ped9" type="ped_pedestrian" depart="69.99">
        <walk edges="-628688344#0 747147373#5 747147373#4 747147373#3 747147373#2 1339741763 1339741753#0 614306541 1340286291#1 1253740033#1 1342224000#1 1342224000#0 1342223992#1 886584707#5 770889249#1 237209965#1 1328823026#1 1328823026#0 1328823027#0 1328823027#1 1328823027#2 1328823024 970317674 1232962013 131668735#1 970317673#0 354041359#0 354041359#1 1232962009#0 1232962009#1 1232962011#0 1232962011#1 1334583245#0 1334583247#0 1334583247#1 1334583246#2 970137803#0 970137803#1"/>
    </person>
    <person id="ped10" type="ped_pedestrian" depart="77.77">
        <walk edges="1443804332#1 747147375#1 1343475542 1343475548 1340286291#1 1253740033#1 1342224000#1 1342224000#0 1342223992#1 886584707#5 770889249#1 237209965#1 1342221594 694562109 237209963 310882265 569042411#0 569042411#1 569042404 26601258#2 26601258#1 569042396 569042395 569042401#1 569042401#0 569042391 310882266 310882264 160465751#1 1339480498#0 1339477844#1 1339477843#1 1339477842#2 1339477842#1 1339477841#1 1339477840#3 1339477840#2 1339477840#1 1339480502 1339480500#0 1339480500#1 1339480501 1351264052#1 1351264051#1 1339477833#1 643025276 4257242#0 4257242#1 1180356339 1180356341"/>
    </person>
    <person id="ped11" type="ped_pedestrian" depart="85.54">
        <walk edges="1400726714#1 1338975872#1 1339251243#1 1339251243#2 1334583240#1 1334583240#0 3128262 970116494 -49934840#0 -474064704#1"/>
    </person>
    <person id="ped12" type="ped_pedestrian" depart="93.32">
        <walk edges="668776635#1 1232962028 997309344#0 997309344#1 1309044515#1 1184460094#1 138545789 1265033824 -1265033833 -1265033822 -62036629 -246170014#1 -246170014#0 314895561"/>
    </person>
    <person id="ped13" type="ped_pedestrian" depart="101.10">
        <walk edges="-868399917#0 405236558#5 970388079#0 1232696862#1 1232696862#0 970388083#1 970388082#1 970388082#0 857317526#1 857317528#1 1007534589 131665279#3 40245631#1 40245631#0 40245629#2 40245629#1 1338916971#1 131666221#0 1341547874#0 -4059325#5 -4059325#4 -4059325#3 -4059325#2 -4059325#1 1232962009#1 1232962011#0 1232962011#1 1232962010 1024298400#1 1024298400#0 1024298401 491691714#1 491691714#0 491691715 970312991 970312990#1 1006630288#1 1006630287 825288056#1 997309341#2 997309341#1 1184460100 -997309342#3 -997309342#2 -997309342#1 1002735993#1 1002735993#0 1184460096 1308890801#1"/>
    </person>
    <person id="ped14" type="ped_pedestrian" depart="108.87">
        <walk edges="248989816#1 520517173#0 1443804331#1 747147375#1 1343475542 1343475548 1340286291#1 1253740033#1 1342224000#1 1342224000#0 1342223992#1 886584707#5 770889249#1 237209965#1 1328823026#1 1328823026#0 1328823027#0 1328823027#1 1328823027#2 1328823024 764257492#1 354041372#1 354041372#0 647892779#1 143822198 671964047#1 671964047#0 647892786 671964050#1 671964050#2 671964050#3 671964050#4 1308890821#1 1308890820 328936387#3 328936387#2 328936387#1 328936387#0 328936390#3 681572635"/>
    </person>
    <person id="ped15" type="ped_pedestrian" depart="116.65">
        <walk edges="1327615660#6 1327615660#5 1327615660#4 1394960098#1 1394960098#0 970035784#2 970116491#0 970116491#1 970116491#2 970116492#0 -49934840#0 970116494 3128262 1334583240#0 1334583242#1 1334583243 1334583239#2 1341547864#1 1341547863 1341547869#1 1341547869#0 1341547872#1 -4059325#4 -845083393#0"/>
    </person>
    <person id="ped16" type="ped_pedestrian" depart="124.43">
        <walk edges="1339251243#2 1334583240#1 1334583242#1 1334583243 1334583239#1 1334583239#0 970137800 970137803#0 970137803#1 1232962026 970312993#0 970312993#1 970312990#0 970312990#1 970312990#2 1180353221 668775167#1 673731512#1 1339480498#1 1339480498#0 1339477844#1 1339477843#1 1339477842#2 1339477842#1 1339477841#1 1339477840#3 1339477840#2 1339477840#1 1339480502 1339480500#0 1339480500#1 1339480501 1351264052#1 -429195620#0"/>
    </person>
    <person id="ped17" type="ped_pedestrian" depart="132.20">
        <walk edges="1336864293 1336852401#0 237209965#8 1253747736 1253747735 1024906206#0 -4253295#4 -4253295#3 -4253295#2 329149451 878165846 329306350 849005536 329306352#2 329306352#1 329306352#0 878165854#1 878165855#0 681098587#2 849005559#0"/>
    </person>
    <person id="ped18" type="ped_pedestrian" depart="139.98">
        <walk edges="1232962030#0 237209965#3 770889250#1 1063770217 886584707#3 886584707#4 886584707#5 770889248#1 770889246#0 1342223996 1342223997 1342223998 1342223995 1342223994 860776045#1 1335738361#1 1335738360"/>
    </person>
    <person id="ped19" type="ped_pedestrian" depart="147.76">
        <walk edges="681098590 681098589 845163816 90028607 105616183#1 105616183#0 681098587#0 680050658 593836742#1 354041364#5 354041364#6 970317676 970388085#1 405236559#1 970388084#2 970388084#1 970388084#0 405236558#3 868399916#1 1253747490#0"/>
    </person>
    <person id="ped20" type="ped_pedestrian" depart="155.53">
        <walk edges="-997309339 1184460099 -997309342#3 1184460100 997309341#1 997309341#2 825288056#1 1006630287 1006630288#1 970312990#1 970312991 491691715 491691714#0 491691714#1 1024298401 1024298400#0 1024298400#1 1232962010 1232962011#1 1232962011#0 1232962009#1 -4059325#1 -845083353#0 533347401#9 533347401#8 533347401#7 533347401#6 533347401#5 533347401#4 533347401#3 533347401#2 131664905#4 131664905#3 131664905#2 131664905#1"/>
    </person>
    <person id="ped21" type="ped_pedestrian" depart="163.31">
        <walk edges="40245626 4253264#1 40245627 970388082#0 857317526#1 857317528#1 1007534589 131665279#3 131665279#2 131665279#1 131665279#0 594677130 1341547870#0 1341547870#1 1341547870#2 138545790#1 138545790#2 138545790#3 138545790#4 138545790#5 138545790#6 138545790#7 131668735#1 1232962013 970317674 1328823024 1328823027#2 1328823027#1 1328823027#0 1328823026#0 1343522642 1343522644#1 1343522643 1328823025#1 237209963 310882265 569042411#0 569042411#1 569042404 26601258#2 435368927 569042367 435368930 569042375 569042377"/>
    </person>
    <person id="ped22" type="ped_pedestrian" depart="171.09">
        <walk edges="499998441#2 499998441#1 1337717314#0 1339741753#1 614306541 1340286291#1 1253740033#1 1253740033#0 886584708#1 1063770213#1 1232962032 237209965#4 -4253497#0 -4253497#1"/>
    </person>
    <person id="ped23" type="ped_pedestrian" depart="178.86">
        <walk edges="1334583239#1 1334583239#0 970137800 970137803#0 970137803#1 1232962026 970312993#0 1184098478 311804830#1 668776628#1 997309344#0 938067063 997309336 997309340#2 1002735993#1 -997309342#1"/>
    </person>
    <person id="ped24" type="ped_pedestrian" depart="186.64">
        <walk edges="329149142 329149141 90028623#4 90028245 1369913831 237263688#2 237263688#1 237263688#0 237263687#2 -4253497#1 -4253497#0 237209965#3 237209965#2 237209965#1 1342221594 694562109 237209963 310882265 569042411#0 569042411#1 569042404 26601258#2 26601258#1 569042396 569042395 569042401#1 569042401#0 569042391 310882266 310882264 160465751#1 1339480498#0 1339477844#1 1339477843#1 1339477842#2 1339477842#1 1339477841#1 1339477840#3"/>
    </person>
    <person id="ped25" type="ped_pedestrian" depart="194.41">
        <walk edges="671964050#1 647892786 671964047#0 671964047#1 143822198 647892779#1 354041372#0 354041372#1 764257492#1 970317674 354041364#0 845163827 680050670#0 680050670#1 680050670#2 878165849#0 878165849#1 878165849#2 680050667 90028623#5 90028623#4 90028623#3 90028623#2 90028623#1 90028238 90029701#3 -1369911709 329305409"/>
    </person>
    <person id="ped26" type="ped_pedestrian" depart="202.19">
        <walk edges="330197783#1 330197783#0 328936387#3 1308890820 1308890821#1 671964050#4 671964050#3 671964050#2 239242188 1184460101 143822199#1 1006630288#1 970312990#0 970312993#1 970312993#0 1232962026 970137803#1 970137803#0 970137800 1334583239#0 1334583239#1 1334583243 1334583242#1 1334583240#1 1339251243#2 1339251243#1 1339251243#0 1296733609 1205368718#0"/>
    </person>
    <person id="ped27" type="ped_pedestrian" depart="209.97">
        <walk edges="314436317#0 -4253994#2"/>
    </person>
    <person id="ped28" type="ped_pedestrian" depart="217.74">
        <walk edges="-687481230 653192000#1 1336852406#2 1336852408 1336852410#1 1336852409 1253743028#2 1336852402#2 1336852402#1 1336852402#0 1336852403#0 1336852403#1 1336852399#2 1336852399#1 1336852399#0 886584706#0 1336864287 237209965#8 1253747736 1253747735 1024906206#0 -4253295#4 -4253295#3 -4253295#2 329149451 878165846 329306350 849005536 329306352#2 329306352#1 329306352#0 878165854#1 878165855#0 681098587#2 681098587#1 681098587#0 105616183#0 105616183#1 105616183#2 90028230#0 90028230#1 848060329"/>
    </person>
    <person id="ped29" type="ped_pedestrian" depart="225.52">
        <walk edges="1208540058#1 1205368718#1 1205368718#0 1296733609 1339251243#0 1338975872#1 1400726715 131668736#2 131668736#1 587309222#1 1338975871 1253424577#1 1253747492#2 1253747492#1 1253747492#0 970388081#0 970388081#1 970388082#0 970388082#1 970388083#1 1232696862#0 1232696862#1 970388079#0 405236558#4 970388084#0 -1007519965"/>
    </person>
    <person id="ped30" type="ped_pedestrian" depart="233.30">
        <walk edges="569042396 26601258#1 26601258#2 569042404 569042411#1 569042411#0 310882265 237209963 694562109 1342221594 237209965#1 237209965#2 237209965#3 237209965#4 1232962032"/>
    </person>
    <person id="ped31" type="ped_pedestrian" depart="241.07">
        <walk edges="1335738359#1 1335738350 1335738360 1335738361#1 860776045#1 1342223994 1342223995 1342223998 1342223997 1342223996 770889246#1 770889246#2 726846272#0 726846272#1 726846272#2 726846274#1 569042372#1 237209964#1 292728157#0 292728157#1 143822198 671964047#1 671964047#0 647892786 671964050#1 671964050#2 671964050#3 671964050#4 1308890821#1 1308890820 328936387#3 330197783#0 330197774 330197775 330197779#0 330197773"/>
    </person>
    <person id="ped32" type="ped_pedestrian" depart="248.85">
        <walk edges="90028229#0 90028229#1 90028612#1 680050667 878165849#2 878165849#1 878165849#0 680050670#2 680050670#1 680050670#0 845163827 354041364#0 970317674 764257492#1 354041372#1 354041372#0 647892779#1 143822198 671964047#1 671964047#0 647892786 671964050#1 671964050#2 671964050#3 671964050#4 239242184#4 239242187#0 239242187#1 1220374601 95709543#1 -246170014#1 -62036629 -1265033822"/>
    </person>
    <person id="ped33" type="ped_pedestrian" depart="256.63">
        <walk edges="4257244#2 -429436952#0 643025279#2 330197781 643025277#0 643025277#1 330197783#2 330197783#1 330197783#0 328936387#3 1308890820 1308890821#0 1308890823#1 239242187#0 239242187#1 1220374601 95709543#1 -246170014#1"/>
    </person>
    <person id="ped34" type="ped_pedestrian" depart="264.40">
        <walk edges="681419343 681419344 469499253#0 469499252 681419348 328936387#2 328936387#3 1308890820 1308890821#1 671964050#4 671964050#3 671964050#2 671964050#1 647892786 671964047#0 671964047#1 143822198 668775167#1 673731512#1 1339480498#1 1339480498#0 1339477844#1 1339477843#1 1339477842#2 1339477842#1 1339477841#1 1339477840#3 1339477840#2"/>
    </person>
    <person id="ped35" type="ped_pedestrian" depart="272.18">
        <walk edges="-513152407 314436317#2 970116494 3128262 970137801 970137802#0 970137802#1 970137800 1334583246#2 1334583247#1 1334583247#0 1334583245#0 1232962011#1 1232962011#0 1232962009#1 1232962009#0 354041359#1 354041359#0 970317673#0 131668735#1 1232962013 970317674 1328823024 1328823027#2 1328823027#1 1328823027#0 1328823026#0 1328823026#1 237209965#1 770889249#1 770889248#1 770889246#0 1342223996 1342223997 1342223998 1342223995 1342223994 860776045#1 1343475539 1339741754#0 1339741767 1340286287#0"/>
    </person>
    <person id="ped36" type="ped_pedestrian" depart="279.96">
        <walk edges="429195620#1 1351264052#1 1339480501 1339480500#1 1339480500#0 1339480502 1339477840#1 1339477840#2 1339477840#3 1339477841#1 1339477842#1 1339477842#2 1339477843#1 1339477844#1 1339480498#0 1339480498#1 673731512#1 668775167#1 647892779#1 354041372#0 354041372#1 764257492#1 970317674 354041364#0 354041364#1 354041364#2 354041364#3 354041364#4 -593836742#1 680050658 681098587#0 105616183#0"/>
    </person>
    <person id="ped37" type="ped_pedestrian" depart="287.73">
        <walk edges="1339741754#1 1335738351#6 1335738351#5 1339741752#1 614306541 1343475548 1343475542 1343475543#1 1343475544 1336852406#1 1336852408 1336852410#1 1336852409 1253743028#2 1336852402#2 1336857843 681757483#1 681757483#2"/>
    </person>
    <person id="ped38" type="ped_pedestrian" depart="295.51">
        <walk edges="825288064 673731512#0 673731512#1 668775167#1 1180353221 764257495#1 970317673#1 970317673#0 138545790#7 138545790#6 138545790#5 138545790#4 138545790#3 138545790#2 138545790#1 1341547870#2 332577713#1 593841486#1 594677128#1"/>
    </person>
    <person id="ped39" type="ped_pedestrian" depart="303.29">
        <walk edges="1419656634 1327615664 1331690905#1 1419656641 1327615660#6 1327615660#5 1327615660#4 1394960098#1 1394960098#0 970035784#2 970116491#0 970116491#1 970116491#2 970116492#0 -49934840#0 970116494 3128262 1334583240#0 1334583240#1 1339251243#2 1339251243#1 1338975872#1 1400726715 131668736#2 131668736#1 587309222#1 1338975871 1253424577#1 1253747492#2 1253747492#1 970388080#1 557814877#1"/>
    </person>
    <person id="ped40" type="ped_pedestrian" depart="311.06">
        <walk edges="116933213 116933256 116933221#1 116933221#0 116815541 -116815569#0 1339477839#1 1339477838#1 1341397552 1341397554 1341397555#0 1341397555#1 1341397553 1339480498#0 160465751#1 310882264 310882266 569042391 569042401#0 569042401#1 569042395 569042396 26601258#1 26601258#2 569042404 569042411#1 569042411#0 310882265 237209963 694562109 1342221594 237209965#1 770889249#1 886584707#5 1342223992#1 1342224000#0 1342224000#1 1253740033#1 1340286291#1 614306541 1339741759#1"/>
    </person>
    <person id="ped41" type="ped_pedestrian" depart="318.84">
        <walk edges="1336852395 1336864292 1336852394#2 1336852394#1 1336852394#0 1336859598 1024906202#2 1024906202#1 1024906204#1 1024906203#1"/>
    </person>
    <person id="ped42" type="ped_pedestrian" depart="326.62">
        <walk edges="-304558118#0 429436953 328936390#1 328936390#2 328936390#3 328936387#0 328936387#1 328936387#2 328936387#3 1308890820 1308890821#1 671964050#4 671964050#3 671964050#2 239242188 1184460101 143822199#1 1006630288#1 970312990#1 970312991 491691715 491691714#0 491691714#1 1024298401 1024298400#0 1024298400#1 1232962010 1232962011#1 1232962011#0 1232962009#1 -4059325#1 -4059325#2"/>
    </person>
    <person id="ped43" type="ped_pedestrian" depart="334.39">
        <walk edges="970312990#2 1180353221 668775167#1 673731512#1 1339480498#1 1339480498#0 1341397553 1341397555#1 1341397555#0 1341397554 1341397552 1339603575"/>
    </person>
    <person id="ped44" type="ped_pedestrian" depart="342.17">
        <walk edges="1336852403#0 1336852403#1 1336852399#2 1336852399#1 1336852399#0 886584706#0 886584706#1 1063770215#1 1063770213#1 1232962032 237209965#4 237209965#3 237209965#2 237209965#1 1342221594 694562109 237209963 310882265 569042411#0 569042411#1 569042404 26601258#2 435368927 569042367 435368930 569042375 569042377 569042379#0 569042379#1 435373011"/>
    </person>
    <person id="ped45" type="ped_pedestrian" depart="349.95">
        <walk edges="593836742#0 354041364#5 354041364#6 970317676 1007519963 857316346#1 131665279#2 131665279#3 1007534589 -166615245#1 -4253273#0 970388081#0 1253747492#0 1253747492#1 874423626#0 874423625"/>
    </person>
    <person id="ped46" type="ped_pedestrian" depart="357.72">
        <walk edges="875554598 875554599#1 875554601 868435449#1 868435449#5 970347263#0 -49934803#3 -49934803#2 -49934803#0 -1073694880 970388080#0 970388080#1 1253747492#0 970388081#0 -4253273#0"/>
    </person>
    <person id="ped47" type="ped_pedestrian" depart="365.50">
        <walk edges="131664596 764257495#1 970317673#1 354041359#0 533347401#10 533347401#9 533347401#8 533347401#7 533347401#6 533347401#5 533347401#4 533347401#3 533347401#2 131664905#5 -4059325#5 1341547874#0 131666221#0 1338916971#1 1338916971#0 1007534588#1 -1205368711#1 237413932#0 1253424577#0 1253424577#1 1253424573#2 1253424573#1 1339802965#1"/>
    </person>
    <person id="ped48" type="ped_pedestrian" depart="373.28">
        <walk edges="1335748813#0 1335748813#1 1335748814 1335748805#1 1335748805#2 1337717315#1 1337717314#2 1339741759#1 614306541 1340286291#1 1253740033#1 1253740033#0 886584708#1 1063770213#1 1232962032 237209965#4 -4253497#0 329148671#0"/>
    </person>
    <person id="ped49" type="ped_pedestrian" depart="381.05">
        <walk edges="1309044496#1 1309044496#0 668776627#2 1232962029 311804832#1 668776633#1 311804829 668776632#1 1309044481 1334583241 970137801 1334583240#0 1334583240#1 1339251243#2 1339251243#1 1338975872#1 1400726715 131668736#2 131668736#1 587309222#1 1338975871 1253424577#1 1253747492#2 874423626#0 874423626#1"/>
    </person>
    <person id="ped50" type="ped_pedestrian" depart="388.83">
        <walk edges="1336853978#1 1336853981 1336864283#0 1336864283#1 1336852414 1336852412#0 1336852412#1 1336864291#1 1336852400 1336852401#1 587315172#1 1336852394#1 1336852394#0 1336859598 1024906202#2 1024906202#1 1253747489#1 1253747489#0 1253747490#0 1253747490#1 970388079#1 970388079#0 1232696862#1 1232696862#0 970388083#1 970388082#1 970388082#0 970388081#1 970388081#0 1253747492#0 1253747492#1 1253747492#2 1253424577#1 1253424573#2 868884090"/>
    </person>
    <person id="ped51" type="ped_pedestrian" depart="396.61">
        <walk edges="878165851 878165852 680050674#1 878165853 848060320 90028239#4 105616183#2 105616183#1 105616183#0 681098587#0 680050658 593836742#1 354041364#5 1343522645 138545788#0 138545788#1 138545790#1 131664905#0 131664905#1 131664905#2 131664905#3 131664905#4 131664905#5 -4059325#5 1341547874#1 1341547867#2 1341547867#1 1341547866#1 1341547866#0 1341548986#0 1341548987#1 1341548987#2 1007519985#1 587309222#1 1253424576#3 1253424576#2 1253424576#1 474217515#0"/>
    </person>
    <person id="ped52" type="ped_pedestrian" depart="404.38">
        <walk edges="1327615660#1 1394960097#1 -49932184#1 1327615662#1 970116491#0 970116491#1 970116491#2 970116492#0 -49934840#0 970116494 3128262 1334583240#0 1334583242#1 1334583243 1334583239#2 1334583239#3 1341548988#1 131668738#7 1341548986#2 1341548986#1 1341548986#0 1341547866#0 1341547866#1 131664998#1 131664998#0 1253747493#1 1343514944 -1205368736#0 -4253273#0"/>
    </person>
    <person id="ped53" type="ped_pedestrian" depart="412.16">
        <walk edges="997309336 997309340#1 1006630290 997309341#1 997309341#2 825288056#1 1006630287 1006630288#1 970312990#1 970312990#2 764257495#1 970317673#1 970317673#0 131668735#1 1232962013 354041364#0 354041364#1 354041364#2 354041364#3 354041364#4 -593836742#1 680050658 681098587#1 681098587#2 878165855#0 878165854#1 329306352#0 329306352#1 329306352#2 849005536 329306350 878165846"/>
    </person>
    <person id="ped54" type="ped_pedestrian" depart="419.94">
        <walk edges="237209965#8 1253747736 1253747735 1024906206#0 -4253295#4 -4253295#3 -4253295#2 -4253295#1"/>
    </person>
    <person id="ped55" type="ped_pedestrian" depart="427.71">
        <walk edges="680050674#0 878165849#0 680050670#2 680050670#1 680050670#0 845163827 354041364#0 1232962013 131668735#1 970317673#0 354041359#0 354041359#1 1232962009#0 1232962009#1 1232962011#0 1232962011#1 1232962010 1024298400#1 1334583248#1"/>
    </person>
    <person id="ped56" type="ped_pedestrian" depart="435.49">
        <walk edges="1343475544 1343475543#1 1343475542 1343475548 1340286291#1 1253740033#1 1342224000#1 1342224000#0 1342223992#1 886584707#5 770889249#1 237209965#1 1328823026#1 1328823026#0 1328823027#0 1328823027#1 1328823027#2 1328823024 970317674 1232962013 131668735#1 970317673#0 970317673#1"/>
    </person>
    <person id="ped57" type="ped_pedestrian" depart="443.27">
        <walk edges="877703038 1374243092 1338916967#2 1338916967#3 1338916967#4 1338916967#5 1232696862#1 970388079#0 405236558#4 970388084#0 970388084#1 970388084#2 405236559#1 970388085#1 970317676 354041364#6 354041364#5 593836742#1 680050658 681098587#0 105616183#0 105616183#1 105616183#2 90028239#4 848060320 848060319#0 848060319#1 680050673 680050672 680050671 878165849#2 680050667 90028612#1 90028229#1 90028229#0 1369911708 237263688#2 90028221 847530489 847530486"/>
    </person>
    <person id="ped58" type="ped_pedestrian" depart="451.04">
        <walk edges="-474217515#0 1253424576#1 1253424576#2 1253424576#3 587309222#1 1007519985#1 1341548987#2 1341548987#1 1341547865#1 1341547865#0 1334583246#0 1334583246#1 1334583247#1 1334583247#0 1334583245#0 1232962010 1024298400#1 1024298400#0 1024298401 491691714#1 491691714#0 491691715 970312991 970312990#1 1006630288#1 143822199#1 1184460101 239242188 671964050#2 671964050#3 671964050#4 1308890821#1 1308890820 328936387#3 330197783#0 330197783#1 330197783#2 643025277#1 643025277#0 330197781 643025279#2 429436952#1"/>
    </person>
    <person id="ped59" type="ped_pedestrian" depart="458.82">
        <walk edges="40245622#3 40245622#2 40245622#1 40245625#0 40245625#1 1341548987#1 1341548986#0 1341547866#0 1341547866#1 1341547867#1 1341547867#2 1341547874#1 -4059325#5 131664905#5 131664905#4 131664905#3 131664905#2 131664905#1 131664905#0 138545790#1 138545790#2 138545790#3 138545790#4 138545790#5 138545790#6 138545790#7 131668735#1 1232962013 970317674 1328823024 1328823027#2 1328823027#1 1328823027#0 1328823026#0 1343522642 1343522644#1 1343522643 1328823025#1 237209963 310882265 569042411#0 569042411#1 569042404 26601258#2 26601258#1 569042396 569042395 569042401#1"/>
    </person>
    <person id="ped60" type="ped_pedestrian" depart="466.60">
        <walk edges="-1205368715#2 -1205368715#0 1339258147 131668736#1 587309222#1 1338975871 1253424577#1 1253747492#2 1253747492#1 970388080#1 970388080#0 -1073694880 -49934803#0 -49934803#2 -49934803#3 970347263#0 868435449#5 868435449#1 875554601 875554599#1"/>
    </person>
    <person id="ped61" type="ped_pedestrian" depart="474.37">
        <walk edges="1205368692 1336853960 1336853980 1336853978#1 1336853981 1336864283#0 1336864283#1 1336852414 1336852412#0 1336852412#1 1336864291#1 1336852400 1336852401#1 587315172#1 1336852394#1 1336852394#0 1336859598 1024906202#2 1024906202#1 1253747489#1 1253747489#0 1253747490#0 1253747490#1 970388079#1 970388079#0 1232696862#1 1232696862#0 970388083#1 970388082#1 970388082#0 970388081#1 970388081#0 1253747492#0 1253747492#1 1253747492#2 1253424577#1 1338975871 587309222#1 131668736#1 1339258147 -1007519983"/>
    </person>
    <person id="ped62" type="ped_pedestrian" depart="482.15">
        <walk edges="469499253#0 469499252 681419348 328936387#2 328936387#3 1308890820 1308890821#1 671964050#4 671964050#3 671964050#2 671964050#1 647892786 671964047#0 671964047#1 143822198 668775167#1 673731512#1 1339480498#1 1339480498#0 1339477844#1 1339477843#1 1339477842#2 1339477842#1 1339477841#1 1339477840#3 1339477840#2 1339477840#1 1339480502 1339480500#0 1339480500#1 1339480501 1351264052#1 1351264051#1 1339477833#1 643025284#1"/>
    </person>
    <person id="ped63" type="ped_pedestrian" depart="489.93">
        <walk edges="569042407 569042419 310882267 569042420 569042409 569042411#0 310882265 237209963 1328823025#1 1343522643 1343522644#1 1343522642 1328823026#0 1328823027#0 1328823027#1 1328823027#2 1328823024 970317674 1232962013 131668735#1 970317673#0 354041359#0 354041359#1 1232962009#0 1232962009#1 1232962011#0 1232962011#1 1334583245#0 1334583247#0 1334583247#1 1334583246#2 970137800 970137802#1 970137802#0 970137801 3128262 970116494 -49934840#0 970116492#0 970116491#2 970116491#1 970116491#0 970035784#2 970035784#1 970035783#1 4253996#1 -561132268#1 -561132268#0 -561132266#1"/>
    </person>
    <person id="ped64" type="ped_pedestrian" depart="497.70">