<?xml version="1.0" encoding="UTF-8"?>

<!-- generated on 2025-10-26 14:34:55.170756 by osmWebWizard.py v1_24_0+0000-b72eb3fabc8
<configuration>
    <net-file value="C:\Program Files (x86)\Eclipse\Sumo\tools\2025-10-26-14-34-38\osm.net.xml.gz"/>
    <output-trip-file value="C:\Program Files (x86)\Eclipse\Sumo\tools\2025-10-26-14-34-38\osm.bicycle.trips.xml"/>
    <route-file value="C:\Program Files (x86)\Eclipse\Sumo\tools\2025-10-26-14-34-38\osm.bicycle.rou.xml"/>
    <prefix value="bike"/>
    <trip-attributes value="departLane=&quot;best&quot;"/>
    <fringe-start-attributes value="departSpeed=&quot;max&quot;"/>
    <vehicle-class value="bicycle"/>
    <fringe-factor value="2"/>
    <edge-permission value="bicycle"/>
    <via-edge-types value="highway.motorway,highway.motorway_link,highway.trunk_link,highway.primary_link,highway.secondary_link,highway.tertiary_link"/>
    <max-distance value="8000.0"/>
    <remove-loops value="True"/>
    <insertion-density value="6.0"/>
</configuration>
-->

<routes xmlns:xsi="http://www.w3.org/2001/XMLSchema-instance" xsi:noNamespaceSchemaLocation="http://sumo.dlr.de/xsd/routes_file.xsd">
    <vType id="bike_bicycle" vClass="bicycle"/>
    <trip id="bike0" depart="0.00" from="741025767" to="-150133378#0" departLane="best" type="bike_bicycle" departSpeed="max"/>
    <trip id="bike1" depart="17.88" from="1007519980" to="-1065258328#2" departLane="best" type="bike_bicycle"/>
    <trip id="bike2" depart="35.76" from="-4253497#2" to="1245943433#1" departLane="best" type="bike_bicycle" departSpeed="max"/>
    <trip id="bike3" depart="53.64" from="-1064730491#1" to="-4253273#0" departLane="best" type="bike_bicycle" departSpeed="max"/>
    <trip id="bike4" depart="71.52" from="3087449#0" to="166615245#1" departLane="best" type="bike_bicycle"/>
    <trip id="bike5" depart="89.39" from="505690871" to="-1007519980" departLane="best" type="bike_bicycle" departSpeed="max"/>
    <trip id="bike6" depart="107.27" from="-747155719#1" to="-314436317#0" departLane="best" type="bike_bicycle"/>
    <trip id="bike7" depart="125.15" from="860776043#2" to="-851719169" departLane="best" type="bike_bicycle"/>
    <trip id="bike8" depart="143.03" from="-1348089134#1" to="-189241670#0" departLane="best" type="bike_bicycle" departSpeed="max"/>
    <trip id="bike9" depart="160.91" from="605078469#0" to="2876904" departLane="best" type="bike_bicycle"/>
    <trip id="bike10" depart="178.79" from="501243983" to="4253497#2" departLane="best" type="bike_bicycle"/>
    <trip id="bike11" depart="196.67" from="1245946975" to="884555184#1" departLane="best" type="bike_bicycle"/>
    <trip id="bike12" depart="214.55" from="557159387#0" to="303559639#4" departLane="best" type="bike_bicycle" departSpeed="max"/>
    <trip id="bike13" depart="232.43" from="62036633" to="246170015#0" departLane="best" type="bike_bicycle"/>
    <trip id="bike14" depart="250.31" from="4059306#1" to="-1140688622" departLane="best" type="bike_bicycle"/>
    <trip id="bike15" depart="268.18" from="-4253998#0" to="-628688344#1" departLane="best" type="bike_bicycle"/>
    <trip id="bike16" depart="286.06" from="-1245943434" to="-474064704#0" departLane="best" type="bike_bicycle"/>
    <trip id="bike17" depart="303.94" from="-17513383#3" to="-558255409#1" departLane="best" type="bike_bicycle"/>
    <trip id="bike18" depart="321.82" from="303559648#1" to="-913020667" departLane="best" type="bike_bicycle"/>
    <trip id="bike19" depart="339.70" from="-860776043#0" to="-4253994#2" departLane="best" type="bike_bicycle"/>
    <trip id="bike20" depart="357.58" from="306452424#0" to="30345826#0" departLane="best" type="bike_bicycle"/>
    <trip id="bike21" depart="375.46" from="-316352257#1" to="4253497#1" departLane="best" type="bike_bicycle"/>
    <trip id="bike22" depart="393.34" from="-3128349#2" to="1006641971#1" departLane="best" type="bike_bicycle"/>
    <trip id="bike23" depart="411.22" from="987343785#0" to="3087832#1" departLane="best" type="bike_bicycle"/>
    <trip id="bike24" depart="429.10" from="131666898#0" to="403199895#0" departLane="best" type="bike_bicycle"/>
    <trip id="bike25" depart="446.97" from="-4253998#1" to="-1073694880" departLane="best" type="bike_bicycle" departSpeed="max"/>
    <trip id="bike26" depart="464.85" from="-4253273#2" to="845083393#1" departLane="best" type="bike_bicycle"/>
    <trip id="bike27" depart="482.73" from="3087832#0" to="1007655986" departLane="best" type="bike_bicycle"/>
    <trip id="bike28" depart="500.61" from="770901750#0" to="1203154075#0" departLane="best" type="bike_bicycle" departSpeed="max"/>
    <trip id="bike29" depart="518.49" from="-49932186#0" to="-49934801" departLane="best" type="bike_bicycle"/>
    <trip id="bike30" depart="536.37" from="1415942083#1" to="-505739792" departLane="best" type="bike_bicycle"/>
    <trip id="bike31" depart="554.25" from="236141635#0" to="747147375#1" departLane="best" type="bike_bicycle"/>
    <trip id="bike32" depart="572.13" from="997309342#2" to="1245946975" departLane="best" type="bike_bicycle"/>
    <trip id="bike33" depart="590.01" from="-1348089134#0" to="-1140688624" departLane="best" type="bike_bicycle"/>
    <trip id="bike34" depart="607.89" from="-236141911#1" to="306452416#2" departLane="best" type="bike_bicycle"/>
    <trip id="bike35" depart="625.76" from="49932186#1" to="1065177554#0" departLane="best" type="bike_bicycle"/>
    <trip id="bike36" depart="643.64" from="-1205940421" to="1007519966" departLane="best" type="bike_bicycle" departSpeed="max"/>
    <trip id="bike37" depart="661.52" from="997309342#1" to="1278349729#1" departLane="best" type="bike_bicycle"/>
    <trip id="bike38" depart="679.40" from="884555174#0" to="643025280#2" departLane="best" type="bike_bicycle"/>
    <trip id="bike39" depart="697.28" from="-1007519984" to="4253271#2" departLane="best" type="bike_bicycle"/>
    <trip id="bike40" depart="715.16" from="314895562" to="1340003587#1" departLane="best" type="bike_bicycle"/>
    <trip id="bike41" depart="733.04" from="-49932186#1" to="311804825#1" departLane="best" type="bike_bicycle"/>
    <trip id="bike42" depart="750.92" from="-237413929#2" to="1112581135" departLane="best" type="bike_bicycle"/>
    <trip id="bike43" depart="768.80" from="1065258328#1" to="860776044#0" departLane="best" type="bike_bicycle"/>
    <trip id="bike44" depart="786.68" from="1205368708" to="-4059308#1" departLane="best" type="bike_bicycle"/>
    <trip id="bike45" depart="804.55" from="770901750#0" to="681757485" departLane="best" type="bike_bicycle" departSpeed="max"/>
    <trip id="bike46" depart="822.43" from="-561132266#1" to="3087832#0" departLane="best" type="bike_bicycle" departSpeed="max"/>
    <trip id="bike47" depart="840.31" from="256785339" to="-314436316#0" departLane="best" type="bike_bicycle" departSpeed="max"/>
    <trip id="bike48" depart="858.19" from="478181073#1" to="1278349729#1" departLane="best" type="bike_bicycle"/>
    <trip id="bike49" depart="876.07" from="-1006641969" to="-825515804" departLane="best" type="bike_bicycle"/>
    <trip id="bike50" depart="893.95" from="687481229" to="561132269#1" departLane="best" type="bike_bicycle"/>
    <trip id="bike51" depart="911.83" from="-589644425" to="-1207336897#0" departLane="best" type="bike_bicycle"/>
    <trip id="bike52" depart="929.71" from="685025168" to="845083394#1" departLane="best" type="bike_bicycle" departSpeed="max"/>
    <trip id="bike53" depart="947.59" from="-1278349729#1" to="1205940421" departLane="best" type="bike_bicycle" departSpeed="max"/>
    <trip id="bike54" depart="965.47" from="-1211000762" to="474064701#0" departLane="best" type="bike_bicycle"/>
    <trip id="bike55" depart="983.34" from="1113340304#0" to="17926240#0" departLane="best" type="bike_bicycle" departSpeed="max"/>
    <trip id="bike56" depart="1001.22" from="-49932186#0" to="681757485" departLane="best" type="bike_bicycle"/>
    <trip id="bike57" depart="1019.10" from="1007519984" to="-4253995#1" departLane="best" type="bike_bicycle"/>
    <trip id="bike58" depart="1036.98" from="1262050428" to="4253497#2" departLane="best" type="bike_bicycle"/>
    <trip id="bike59" depart="1054.86" from="-4082615#1" to="-758462267#0" departLane="best" type="bike_bicycle"/>
    <trip id="bike60" depart="1072.74" from="997309342#0" to="3128255#3" departLane="best" type="bike_bicycle"/>
    <trip id="bike61" depart="1090.62" from="1040323294" to="1265033829" departLane="best" type="bike_bicycle"/>
    <trip id="bike62" depart="1108.50" from="-747147375#1" to="26294450#1" departLane="best" type="bike_bicycle"/>
    <trip id="bike63" depart="1126.38" from="-1211612020#1" to="306452424#0" departLane="best" type="bike_bicycle"/>
    <trip id="bike64" depart="1144.26" from="-4253998#1" to="770901750#1" departLane="best" type="bike_bicycle" departSpeed="max"/>
    <trip id="bike65" depart="1162.13" from="62036629" to="-1245943433#1" departLane="best" type="bike_bicycle"/>
    <trip id="bike66" depart="1180.01" from="-4253276#1" to="-306452424#2" departLane="best" type="bike_bicycle"/>
    <trip id="bike67" depart="1197.89" from="825288054" to="237413929#4" departLane="best" type="bike_bicycle"/>
    <trip id="bike68" depart="1215.77" from="1112581140" to="49932184#1" departLane="best" type="bike_bicycle"/>
    <trip id="bike69" depart="1233.65" from="504568375#0" to="-4059327#2" departLane="best" type="bike_bicycle"/>
    <trip id="bike70" depart="1251.53" from="-150133378#0" to="1112581131#0" departLane="best" type="bike_bicycle"/>
    <trip id="bike71" depart="1269.41" from="1007519984" to="1205368697" departLane="best" type="bike_bicycle"/>
    <trip id="bike72" depart="1287.29" from="4082617#1" to="343251278#1" departLane="best" type="bike_bicycle"/>
    <trip id="bike73" depart="1305.17" from="90247861" to="-236141635#0" departLane="best" type="bike_bicycle"/>
    <trip id="bike74" depart="1323.05" from="-987343785#1" to="-860776043#0" departLane="best" type="bike_bicycle" departSpeed="max"/>
    <trip id="bike75" depart="1340.92" from="62036633" to="-49934803#0" departLane="best" type="bike_bicycle"/>
    <trip id="bike76" depart="1358.80" from="1007519980" to="-561132266#0" departLane="best" type="bike_bicycle"/>
    <trip id="bike77" depart="1376.68" from="-474064704#0" to="825288054" departLane="best" type="bike_bicycle"/>
    <trip id="bike78" depart="1394.56" from="1059707542#1" to="643025280#2" departLane="best" type="bike_bicycle"/>
    <trip id="bike79" depart="1412.44" from="1268691034" to="-1200987340" departLane="best" type="bike_bicycle"/>
    <trip id="bike80" depart="1430.32" from="997309342#4" to="587315173#1" departLane="best" type="bike_bicycle"/>
    <trip id="bike81" depart="1448.20" from="1200987340" to="-4253996#0" departLane="best" type="bike_bicycle" departSpeed="max"/>
    <trip id="bike82" depart="1466.08" from="-987343785#0" to="-1207336897#0" departLane="best" type="bike_bicycle"/>
    <trip id="bike83" depart="1483.96" from="-49932186#0" to="491845647" departLane="best" type="bike_bicycle"/>
    <trip id="bike84" depart="1501.84" from="1073694879" to="1065258328#1" departLane="best" type="bike_bicycle"/>
    <trip id="bike85" depart="1519.71" from="860776043#2" to="997309342#1" departLane="best" type="bike_bicycle"/>
    <trip id="bike86" depart="1537.59" from="1309044510#0" to="4253271#0" departLane="best" type="bike_bicycle"/>
    <trip id="bike87" depart="1555.47" from="-311804827#0" to="-685020269#1" departLane="best" type="bike_bicycle"/>
    <trip id="bike88" depart="1573.35" from="1205368710" to="62036629" departLane="best" type="bike_bicycle"/>
    <trip id="bike89" depart="1591.23" from="-3127740#0" to="876833209#2" departLane="best" type="bike_bicycle"/>
    <trip id="bike90" depart="1609.11" from="-1245943434" to="-4059325#5" departLane="best" type="bike_bicycle"/>
    <trip id="bike91" depart="1626.99" from="694563843" to="-49934801" departLane="best" type="bike_bicycle"/>
    <trip id="bike92" depart="1644.87" from="237413929#4" to="303559648#1" departLane="best" type="bike_bicycle"/>
    <trip id="bike93" depart="1662.75" from="1007519972" to="24936218" departLane="best" type="bike_bicycle"/>
    <trip id="bike94" depart="1680.63" from="1211000762" to="837448601" departLane="best" type="bike_bicycle"/>
    <trip id="bike95" depart="1698.50" from="-41588174#1" to="41588174#1" departLane="best" type="bike_bicycle"/>
    <trip id="bike96" depart="1716.38" from="314436316#0" to="-694563843" departLane="best" type="bike_bicycle" departSpeed="max"/>
    <trip id="bike97" depart="1734.26" from="-1232962030#0" to="1200989935#1" departLane="best" type="bike_bicycle"/>
    <trip id="bike98" depart="1752.14" from="997309342#3" to="997309342#1" departLane="best" type="bike_bicycle"/>
    <trip id="bike99" depart="1770.02" from="-1232962030#0" to="-4253996#0" departLane="best" type="bike_bicycle"/>
    <trip id="bike100" depart="1787.90" from="-49932186#0" to="837448598" departLane="best" type="bike_bicycle"/>
    <trip id="bike101" depart="1805.78" from="687481230" to="694562108" departLane="best" type="bike_bicycle"/>
    <trip id="bike102" depart="1823.66" from="-860776043#0" to="-314436317#2" departLane="best" type="bike_bicycle"/>
    <trip id="bike103" depart="1841.54" from="557814877#0" to="4059325#3" departLane="best" type="bike_bicycle" departSpeed="max"/>
    <trip id="bike104" depart="1859.42" from="26294450#1" to="987343785#0" departLane="best" type="bike_bicycle"/>
    <trip id="bike105" depart="1877.29" from="3087449#3" to="-1007519983" departLane="best" type="bike_bicycle"/>
    <trip id="bike106" depart="1895.17" from="513152407" to="-694562117" departLane="best" type="bike_bicycle"/>
    <trip id="bike107" depart="1913.05" from="3127740#1" to="845083353#1" departLane="best" type="bike_bicycle"/>
    <trip id="bike108" depart="1930.93" from="-303559648#4" to="-28509862#0" departLane="best" type="bike_bicycle"/>
    <trip id="bike109" depart="1948.81" from="-18309858#2" to="17929793#0" departLane="best" type="bike_bicycle"/>
    <trip id="bike110" depart="1966.69" from="-49934803#3" to="30273084#2" departLane="best" type="bike_bicycle"/>
    <trip id="bike111" depart="1984.57" from="4059325#3" to="-4253276#0" departLane="best" type="bike_bicycle"/>
    <trip id="bike112" depart="2002.45" from="1200989934" to="770901750#1" departLane="best" type="bike_bicycle"/>
    <trip id="bike113" depart="2020.33" from="1007519984" to="-557159387#1" departLane="best" type="bike_bicycle"/>
    <trip id="bike114" depart="2038.21" from="-1006641971#1" to="474217519#0" departLane="best" type="bike_bicycle" departSpeed="max"/>
    <trip id="bike115" depart="2056.08" from="303559648#3" to="-505739792" departLane="best" type="bike_bicycle"/>
    <trip id="bike116" depart="2073.96" from="4253276#0" to="17926240#2" departLane="best" type="bike_bicycle"/>
    <trip id="bike117" depart="2091.84" from="1007655985" to="-1007655986" departLane="best" type="bike_bicycle"/>
    <trip id="bike118" depart="2109.72" from="-1240736310" to="694563843" departLane="best" type="bike_bicycle" departSpeed="max"/>
    <trip id="bike119" depart="2127.60" from="747147372#0" to="166615245#2" departLane="best" type="bike_bicycle"/>
    <trip id="bike120" depart="2145.48" from="557814877#1" to="24936216" departLane="best" type="bike_bicycle"/>
    <trip id="bike121" depart="2163.36" from="-3087449#1" to="-306452416#2" departLane="best" type="bike_bicycle"/>
    <trip id="bike122" depart="2181.24" from="-617608149" to="747147375#3" departLane="best" type="bike_bicycle"/>
    <trip id="bike123" depart="2199.12" from="49934803#0" to="643025280#2" departLane="best" type="bike_bicycle"/>
    <trip id="bike124" depart="2216.99" from="746410872#0" to="-4253994#2" departLane="best" type="bike_bicycle" departSpeed="max"/>
    <trip id="bike125" depart="2234.87" from="-474064704#0" to="-236141911#1" departLane="best" type="bike_bicycle"/>
    <trip id="bike126" depart="2252.75" from="485039781#1" to="694563845" departLane="best" type="bike_bicycle"/>
    <trip id="bike127" depart="2270.63" from="-997309339" to="303559648#3" departLane="best" type="bike_bicycle"/>
    <trip id="bike128" depart="2288.51" from="628688344#1" to="884555189" departLane="best" type="bike_bicycle"/>
    <trip id="bike129" depart="2306.39" from="505690871" to="694563841" departLane="best" type="bike_bicycle" departSpeed="max"/>
    <trip id="bike130" depart="2324.27" from="-1062480575" to="4253996#0" departLane="best" type="bike_bicycle"/>
    <trip id="bike131" depart="2342.15" from="-746410871" to="825515804" departLane="best" type="bike_bicycle"/>
    <trip id="bike132" depart="2360.03" from="49934843#0" to="675079978#0" departLane="best" type="bike_bicycle"/>
    <trip id="bike133" depart="2377.91" from="505690871" to="-513152402" departLane="best" type="bike_bicycle" departSpeed="max"/>
    <trip id="bike134" depart="2395.78" from="49932184#0" to="-237413929#3" departLane="best" type="bike_bicycle" departSpeed="max"/>
    <trip id="bike135" depart="2413.66" from="675079978#2" to="643025280#1" departLane="best" type="bike_bicycle"/>
    <trip id="bike136" depart="2431.54" from="1112581129" to="-746410872#0" departLane="best" type="bike_bicycle"/>
    <trip id="bike137" depart="2449.42" from="-1062480573#0" to="-41588157" departLane="best" type="bike_bicycle"/>
    <trip id="bike138" depart="2467.30" from="-741020511#0" to="675079978#0" departLane="best" type="bike_bicycle"/>
    <trip id="bike139" depart="2485.18" from="876833210" to="-561132266#0" departLane="best" type="bike_bicycle"/>
    <trip id="bike140" depart="2503.06" from="825288063#1" to="-28509862#0" departLane="best" type="bike_bicycle"/>
    <trip id="bike141" depart="2520.94" from="884555174#0" to="-4059308#1" departLane="best" type="bike_bicycle"/>
    <trip id="bike142" depart="2538.82" from="-236141635#1" to="1112581135" departLane="best" type="bike_bicycle"/>
    <trip id="bike143" depart="2556.70" from="4082617#1" to="-8173312" departLane="best" type="bike_bicycle"/>
    <trip id="bike144" depart="2574.57" from="-884555178" to="246170015#0" departLane="best" type="bike_bicycle"/>
    <trip id="bike145" depart="2592.45" from="-474217515#1" to="4059327#1" departLane="best" type="bike_bicycle" departSpeed="max"/>
    <trip id="bike146" depart="2610.33" from="-1006641971#1" to="825288063#0" departLane="best" type="bike_bicycle" departSpeed="max"/>
    <trip id="bike147" depart="2628.21" from="1262050427" to="4253271#1" departLane="best" type="bike_bicycle"/>
    <trip id="bike148" depart="2646.09" from="-845083394#0" to="-1245943433#1" departLane="best" type="bike_bicycle"/>
    <trip id="bike149" depart="2663.97" from="3127740#1" to="-845083353#0" departLane="best" type="bike_bicycle"/>
    <trip id="bike150" depart="2681.85" from="-643025280#2" to="614306542#0" departLane="best" type="bike_bicycle" departSpeed="max"/>
    <trip id="bike151" depart="2699.73" from="4059325#5" to="-694563843" departLane="best" type="bike_bicycle"/>
    <trip id="bike152" depart="2717.61" from="-628688344#0" to="1059707545" departLane="best" type="bike_bicycle"/>
    <trip id="bike153" depart="2735.49" from="-987343785#1" to="-675079978#3" departLane="best" type="bike_bicycle" departSpeed="max"/>
    <trip id="bike154" depart="2753.36" from="-28509862#0" to="1065127941" departLane="best" type="bike_bicycle"/>
    <trip id="bike155" depart="2771.24" from="746410875" to="303559639#2" departLane="best" type="bike_bicycle"/>
    <trip id="bike156" depart="2789.12" from="-587315169#1" to="17513383#3" departLane="best" type="bike_bicycle"/>
    <trip id="bike157" depart="2807.00" from="-1006641969" to="-617608149" departLane="best" type="bike_bicycle"/>
    <trip id="bike158" depart="2824.88" from="1007655987" to="248989219" departLane="best" type="bike_bicycle"/>
    <trip id="bike159" depart="2842.76" from="3087832#0" to="1205368694" departLane="best" type="bike_bicycle"/>
    <trip id="bike160" depart="2860.64" from="1059707542#0" to="-4253996#0" departLane="best" type="bike_bicycle"/>
    <trip id="bike161" depart="2878.52" from="1112581141" to="747155719#1" departLane="best" type="bike_bicycle"/>
    <trip id="bike162" depart="2896.40" from="-1278349729#1" to="1265033821" departLane="best" type="bike_bicycle" departSpeed="max"/>
    <trip id="bike163" depart="2914.28" from="-4059327#1" to="-1065127939#0" departLane="best" type="bike_bicycle"/>
    <trip id="bike164" depart="2932.15" from="-474064694" to="1205368715#0" departLane="best" type="bike_bicycle" departSpeed="max"/>
    <trip id="bike165" depart="2950.03" from="605078471#0" to="-1245943434" departLane="best" type="bike_bicycle"/>
    <trip id="bike166" depart="2967.91" from="1007519965" to="306452416#4" departLane="best" type="bike_bicycle"/>
    <trip id="bike167" depart="2985.79" from="-4059325#4" to="4059307#4" departLane="best" type="bike_bicycle"/>
    <trip id="bike168" depart="3003.67" from="1205368694" to="-49932186#0" departLane="best" type="bike_bicycle"/>
    <trip id="bike169" depart="3021.55" from="3087832#1" to="-1007519979" departLane="best" type="bike_bicycle"/>
    <trip id="bike170" depart="3039.43" from="4253998#0" to="474217517" departLane="best" type="bike_bicycle"/>
    <trip id="bike171" depart="3057.31" from="-18309858#2" to="1073694880" departLane="best" type="bike_bicycle"/>
    <trip id="bike172" depart="3075.19" from="-343251276" to="876833209#0" departLane="best" type="bike_bicycle" departSpeed="max"/>
    <trip id="bike173" depart="3093.07" from="-474064704#0" to="614306542#0" departLane="best" type="bike_bicycle"/>
    <trip id="bike174" depart="3110.94" from="1073694880" to="49934847" departLane="best" type="bike_bicycle"/>
    <trip id="bike175" depart="3128.82" from="3128255#3" to="987343785#0" departLane="best" type="bike_bicycle"/>
    <trip id="bike176" depart="3146.70" from="237413929#4" to="860776043#0" departLane="best" type="bike_bicycle"/>
    <trip id="bike177" depart="3164.58" from="741020511#0" to="303559639#0" departLane="best" type="bike_bicycle"/>
    <trip id="bike178" depart="3182.46" from="4059325#4" to="1245943433#1" departLane="best" type="bike_bicycle"/>
    <trip id="bike179" depart="3200.34" from="557159387#1" to="17513383#3" departLane="best" type="bike_bicycle"/>
    <trip id="bike180" depart="3218.22" from="1113340304#0" to="-505690871" departLane="best" type="bike_bicycle" departSpeed="max"/>
    <trip id="bike181" depart="3236.10" from="-474064698#0" to="3087449#3" departLane="best" type="bike_bicycle"/>
    <trip id="bike182" depart="3253.98" from="30345817#0" to="-557159387#0" departLane="best" type="bike_bicycle"/>
    <trip id="bike183" depart="3271.86" from="-1245943433#1" to="-589644425" departLane="best" type="bike_bicycle"/>
    <trip id="bike184" depart="3289.73" from="-49934803#2" to="-825288054" departLane="best" type="bike_bicycle"/>
    <trip id="bike185" depart="3307.61" from="1262050428" to="-3087832#0" departLane="best" type="bike_bicycle"/>
    <trip id="bike186" depart="3325.49" from="4059307#0" to="-1211000762" departLane="best" type="bike_bicycle"/>
    <trip id="bike187" depart="3343.37" from="1007519966" to="-4253497#0" departLane="best" type="bike_bicycle"/>
    <trip id="bike188" depart="3361.25" from="1007519979" to="758462267#0" departLane="best" type="bike_bicycle"/>
    <trip id="bike189" depart="3379.13" from="236141635#0" to="4059307#3" departLane="best" type="bike_bicycle"/>
    <trip id="bike190" depart="3397.01" from="614306543#0" to="474217515#1" departLane="best" type="bike_bicycle"/>
    <trip id="bike191" depart="3414.89" from="-876833209#1" to="-1007519979" departLane="best" type="bike_bicycle"/>
    <trip id="bike192" depart="3432.77" from="614306541" to="860776044#0" departLane="best" type="bike_bicycle"/>
    <trip id="bike193" depart="3450.65" from="1265033830" to="2876904" departLane="best" type="bike_bicycle"/>
    <trip id="bike194" depart="3468.52" from="1034354984#0" to="-1065258328#2" departLane="best" type="bike_bicycle" departSpeed="max"/>
    <trip id="bike195" depart="3486.40" from="1112581137#0" to="-306452416#3" departLane="best" type="bike_bicycle" departSpeed="max"/>
    <trip id="bike196" depart="3504.28" from="2876128#1" to="-1065127940" departLane="best" type="bike_bicycle"/>
    <trip id="bike197" depart="3522.16" from="-884555189" to="236141827#0" departLane="best" type="bike_bicycle"/>
    <trip id="bike198" depart="3540.04" from="-1064730491#1" to="311804827#0" departLane="best" type="bike_bicycle" departSpeed="max"/>
    <trip id="bike199" depart="3557.92" from="-1112581140" to="1006641971#1" departLane="best" type="bike_bicycle"/>
    <trip id="bike200" depart="3575.80" from="-4253273#2" to="-837448601" departLane="best" type="bike_bicycle"/>
    <trip id="bike201" depart="3593.68" from="4253998#0" to="561132269#1" departLane="best" type="bike_bicycle"/>
</routes>
