<?xml version="1.0" encoding="UTF-8"?>

<!-- generated on 2025-10-26 14:35:01.036150 by osmWebWizard.py v1_24_0+0000-b72eb3fabc8
<configuration>
    <net-file value="C:\Program Files (x86)\Eclipse\Sumo\tools\2025-10-26-14-34-38\osm.net.xml.gz"/>
    <output-trip-file value="C:\Program Files (x86)\Eclipse\Sumo\tools\2025-10-26-14-34-38\osm.truck.trips.xml"/>
    <route-file value="C:\Program Files (x86)\Eclipse\Sumo\tools\2025-10-26-14-34-38\osm.truck.rou.xml"/>
    <prefix value="truck"/>
    <trip-attributes value="departLane=&quot;best&quot;"/>
    <fringe-start-attributes value="departSpeed=&quot;max&quot;"/>
    <vehicle-class value="truck"/>
    <fringe-factor value="5"/>
    <edge-permission value="truck"/>
    <via-edge-types value="highway.motorway,highway.motorway_link,highway.trunk_link,highway.primary_link,highway.secondary_link,highway.tertiary_link"/>
    <seed value="47"/>
    <min-distance value="600.0"/>
    <min-distance.fringe value="10.0"/>
    <remove-loops value="True"/>
    <insertion-density value="8.0"/>
</configuration>
-->

<routes xmlns:xsi="http://www.w3.org/2001/XMLSchema-instance" xsi:noNamespaceSchemaLocation="http://sumo.dlr.de/xsd/routes_file.xsd">
    <vType id="truck_truck" vClass="truck"/>
    <trip id="truck0" depart="0.00" from="1200987340" to="-884555186" departLane="best" type="truck_truck" departSpeed="max"/>
    <trip id="truck1" depart="19.27" from="279154263" to="-49934843#2" departLane="best" type="truck_truck" departSpeed="max"/>
    <trip id="truck2" depart="38.55" from="-1211612020#1" to="-884555181" departLane="best" type="truck_truck"/>
    <trip id="truck3" depart="57.82" from="246170016" to="-587315169#1" departLane="best" type="truck_truck"/>
    <trip id="truck4" depart="77.10" from="26763531" to="-587317657#1" departLane="best" type="truck_truck" departSpeed="max"/>
    <trip id="truck5" depart="96.37" from="-913020667" to="49934843#1" departLane="best" type="truck_truck"/>
    <trip id="truck6" depart="115.65" from="541926390#1" to="3087832#0" departLane="best" type="truck_truck"/>
    <trip id="truck7" depart="134.92" from="1186049313#1" to="987343785#1" departLane="best" type="truck_truck"/>
    <trip id="truck8" depart="154.20" from="-306452416#3" to="-675079978#0" departLane="best" type="truck_truck"/>
    <trip id="truck9" depart="173.47" from="587315169#1" to="24936218" departLane="best" type="truck_truck"/>
    <trip id="truck10" depart="192.75" from="1007519979" to="997309342#1" departLane="best" type="truck_truck"/>
    <trip id="truck11" depart="212.02" from="-4257237#0" to="825288063#1" departLane="best" type="truck_truck"/>
    <trip id="truck12" depart="231.30" from="504568375#0" to="-884555189" departLane="best" type="truck_truck"/>
    <trip id="truck13" depart="250.57" from="-1059707540#0" to="-3128349#4" departLane="best" type="truck_truck"/>
    <trip id="truck14" depart="269.85" from="-1340003587#0" to="-4253998#0" departLane="best" type="truck_truck"/>
    <trip id="truck15" depart="289.12" from="501243983" to="561132269#0" departLane="best" type="truck_truck"/>
    <trip id="truck16" depart="308.40" from="236141635#1" to="27188930" departLane="best" type="truck_truck"/>
    <trip id="truck17" depart="327.67" from="-237413929#4" to="-316158482#1" departLane="best" type="truck_truck"/>
    <trip id="truck18" depart="346.95" from="770901750#0" to="237413929#1" departLane="best" type="truck_truck" departSpeed="max"/>
    <trip id="truck19" depart="366.22" from="26763531" to="49932186#0" departLane="best" type="truck_truck" departSpeed="max"/>
    <trip id="truck20" depart="385.50" from="311804827#0" to="996665163" departLane="best" type="truck_truck"/>
    <trip id="truck21" depart="404.77" from="884555184#0" to="-3128255#3" departLane="best" type="truck_truck"/>
    <trip id="truck22" depart="424.05" from="279154263" to="49932186#1" departLane="best" type="truck_truck" departSpeed="max"/>
    <trip id="truck23" depart="443.32" from="501243983" to="1211612020#0" departLane="best" type="truck_truck"/>
    <trip id="truck24" depart="462.60" from="884555174#0" to="-4256304" departLane="best" type="truck_truck"/>
    <trip id="truck25" depart="481.87" from="306452416#4" to="237413929#4" departLane="best" type="truck_truck"/>
    <trip id="truck26" depart="501.15" from="-3087449#1" to="860776043#2" departLane="best" type="truck_truck"/>
    <trip id="truck27" depart="520.42" from="18309858#2" to="-825515804" departLane="best" type="truck_truck"/>
    <trip id="truck28" depart="539.70" from="1007655987" to="-3127740#0" departLane="best" type="truck_truck"/>
    <trip id="truck29" depart="558.97" from="837448597#1" to="681757485" departLane="best" type="truck_truck"/>
    <trip id="truck30" depart="578.25" from="4257239" to="1006641969" departLane="best" type="truck_truck" departSpeed="max"/>
    <trip id="truck31" depart="597.52" from="-1100812341#0" to="687481231#1" departLane="best" type="truck_truck"/>
    <trip id="truck32" depart="616.80" from="1112581135" to="1340003587#0" departLane="best" type="truck_truck"/>
    <trip id="truck33" depart="636.07" from="746410872#0" to="681757485" departLane="best" type="truck_truck" departSpeed="max"/>
    <trip id="truck34" depart="655.35" from="825175712" to="306452416#1" departLane="best" type="truck_truck"/>
    <trip id="truck35" depart="674.62" from="306452416#1" to="31259042" departLane="best" type="truck_truck"/>
    <trip id="truck36" depart="693.90" from="-1340003587#1" to="311804826" departLane="best" type="truck_truck"/>
    <trip id="truck37" depart="713.17" from="-4257237#0" to="306452424#1" departLane="best" type="truck_truck"/>
    <trip id="truck38" depart="732.45" from="505739792" to="1062480573#0" departLane="best" type="truck_truck" departSpeed="max"/>
    <trip id="truck39" depart="751.72" from="150133378#0" to="1112581130" departLane="best" type="truck_truck"/>
    <trip id="truck40" depart="771.00" from="17929793#0" to="1100812341#0" departLane="best" type="truck_truck"/>
    <trip id="truck41" depart="790.27" from="825175712" to="-851719169" departLane="best" type="truck_truck"/>
    <trip id="truck42" depart="809.55" from="35085540" to="-3087449#3" departLane="best" type="truck_truck"/>
    <trip id="truck43" depart="828.82" from="1211612020#0" to="913020667" departLane="best" type="truck_truck"/>
    <trip id="truck44" depart="848.10" from="1007655985" to="-1112581137#0" departLane="best" type="truck_truck"/>
    <trip id="truck45" depart="867.37" from="-541926390#3" to="314436317#2" departLane="best" type="truck_truck" departSpeed="max"/>
    <trip id="truck46" depart="886.65" from="18309858#0" to="4253995#1" departLane="best" type="truck_truck"/>
    <trip id="truck47" depart="905.92" from="3087449#0" to="825288052" departLane="best" type="truck_truck"/>
    <trip id="truck48" depart="925.20" from="3087449#3" to="-1062480573#0" departLane="best" type="truck_truck"/>
    <trip id="truck49" depart="944.47" from="746410872#0" to="3087832#1" departLane="best" type="truck_truck" departSpeed="max"/>
    <trip id="truck50" depart="963.75" from="542832660#0" to="-311804827#1" departLane="best" type="truck_truck"/>
    <trip id="truck51" depart="983.02" from="-306452416#1" to="17929796#1" departLane="best" type="truck_truck"/>
    <trip id="truck52" depart="1002.30" from="1007519980" to="884555182" departLane="best" type="truck_truck"/>
    <trip id="truck53" depart="1021.57" from="-884555174#0" to="314436317#0" departLane="best" type="truck_truck"/>
    <trip id="truck54" depart="1040.85" from="4059308#1" to="-913020667" departLane="best" type="truck_truck"/>
    <trip id="truck55" depart="1060.12" from="-1211612020#1" to="561132269#0" departLane="best" type="truck_truck"/>
    <trip id="truck56" depart="1079.40" from="26294450#0" to="485039787#1" departLane="best" type="truck_truck"/>
    <trip id="truck57" depart="1098.67" from="4059308#1" to="-996665163" departLane="best" type="truck_truck"/>
    <trip id="truck58" depart="1117.95" from="4257235" to="-1112581137#0" departLane="best" type="truck_truck" departSpeed="max"/>
    <trip id="truck59" depart="1137.22" from="884555181" to="-1340003587#0" departLane="best" type="truck_truck"/>
    <trip id="truck60" depart="1156.50" from="1112581140" to="303559648#1" departLane="best" type="truck_truck"/>
    <trip id="truck61" depart="1175.77" from="-3087449#3" to="-884555182" departLane="best" type="truck_truck"/>
    <trip id="truck62" depart="1195.05" from="4257239" to="-17513383#3" departLane="best" type="truck_truck" departSpeed="max"/>
    <trip id="truck63" depart="1214.32" from="884555185" to="485039787#1" departLane="best" type="truck_truck"/>
    <trip id="truck64" depart="1233.60" from="-360934008#2" to="825515804" departLane="best" type="truck_truck"/>
    <trip id="truck65" depart="1252.87" from="1340003587#0" to="825288063#0" departLane="best" type="truck_truck"/>
    <trip id="truck66" depart="1272.15" from="7970886" to="-825515804" departLane="best" type="truck_truck"/>
    <trip id="truck67" depart="1291.42" from="770901750#1" to="-316352257#1" departLane="best" type="truck_truck"/>
    <trip id="truck68" depart="1310.70" from="884555174#1" to="311804827#1" departLane="best" type="truck_truck"/>
    <trip id="truck69" depart="1329.97" from="1112581135" to="1065127941" departLane="best" type="truck_truck"/>
    <trip id="truck70" depart="1349.25" from="1112581131#1" to="485039787#1" departLane="best" type="truck_truck"/>
    <trip id="truck71" depart="1368.52" from="279154263" to="4059325#3" departLane="best" type="truck_truck" departSpeed="max"/>
    <trip id="truck72" depart="1387.80" from="1112581141" to="614306543#1" departLane="best" type="truck_truck"/>
    <trip id="truck73" depart="1407.07" from="-884555174#1" to="-3128255#2" departLane="best" type="truck_truck"/>
    <trip id="truck74" depart="1426.35" from="279154263" to="-1065127939#1" departLane="best" type="truck_truck" departSpeed="max"/>
    <trip id="truck75" depart="1445.62" from="4059307#1" to="306452416#0" departLane="best" type="truck_truck"/>
    <trip id="truck76" depart="1464.90" from="246170015#0" to="7970886" departLane="best" type="truck_truck"/>
    <trip id="truck77" depart="1484.17" from="587317657#0" to="18309858#1" departLane="best" type="truck_truck" departSpeed="max"/>
    <trip id="truck78" depart="1503.45" from="3087832#0" to="-1200987340" departLane="best" type="truck_truck"/>
    <trip id="truck79" depart="1522.72" from="26763531" to="-1340003587#0" departLane="best" type="truck_truck" departSpeed="max"/>
    <trip id="truck80" depart="1542.00" from="4059307#3" to="3128349#2" departLane="best" type="truck_truck"/>
    <trip id="truck81" depart="1561.27" from="747155719#1" to="-825515804" departLane="best" type="truck_truck"/>
    <trip id="truck82" depart="1580.55" from="4257235" to="-884555178" departLane="best" type="truck_truck" departSpeed="max"/>
    <trip id="truck83" depart="1599.82" from="-3087449#0" to="675079978#3" departLane="best" type="truck_truck"/>
    <trip id="truck84" depart="1619.10" from="860776043#2" to="1007519970" departLane="best" type="truck_truck"/>
    <trip id="truck85" depart="1638.37" from="-4257237#0" to="-1112581137#0" departLane="best" type="truck_truck"/>
    <trip id="truck86" depart="1657.65" from="587315169#1" to="9616291" departLane="best" type="truck_truck"/>
    <trip id="truck87" depart="1676.92" from="-4059306#1" to="-49932186#0" departLane="best" type="truck_truck"/>
    <trip id="truck88" depart="1696.20" from="-1062480575" to="1065127941" departLane="best" type="truck_truck"/>
    <trip id="truck89" depart="1715.47" from="4253994#1" to="303559639#2" departLane="best" type="truck_truck"/>
    <trip id="truck90" depart="1734.75" from="279154263" to="746410875" departLane="best" type="truck_truck" departSpeed="max"/>
    <trip id="truck91" depart="1754.02" from="26294450#0" to="884555184#0" departLane="best" type="truck_truck"/>
    <trip id="truck92" depart="1773.29" from="306452416#3" to="303559639#2" departLane="best" type="truck_truck"/>
    <trip id="truck93" depart="1792.57" from="-542832662" to="-3128255#3" departLane="best" type="truck_truck"/>
    <trip id="truck94" depart="1811.84" from="1245947684" to="589640599" departLane="best" type="truck_truck"/>
    <trip id="truck95" depart="1831.12" from="3087449#0" to="1059707545" departLane="best" type="truck_truck"/>
    <trip id="truck96" depart="1850.39" from="-4257237#1" to="1065127941" departLane="best" type="truck_truck" departSpeed="max"/>
    <trip id="truck97" depart="1869.67" from="505739792" to="746410866" departLane="best" type="truck_truck" departSpeed="max"/>
    <trip id="truck98" depart="1888.94" from="1245947684" to="1059707542#1" departLane="best" type="truck_truck"/>
    <trip id="truck99" depart="1908.22" from="770901750#0" to="1007655988" departLane="best" type="truck_truck" departSpeed="max"/>
    <trip id="truck100" depart="1927.49" from="-4059327#1" to="-587317657#1" departLane="best" type="truck_truck"/>
    <trip id="truck101" depart="1946.77" from="-4257237#0" to="746410875" departLane="best" type="truck_truck"/>
    <trip id="truck102" depart="1966.04" from="825288052" to="402061426#1" departLane="best" type="truck_truck"/>
    <trip id="truck103" depart="1985.32" from="236141635#1" to="825515804" departLane="best" type="truck_truck"/>
    <trip id="truck104" depart="2004.59" from="860776043#1" to="1006641969" departLane="best" type="truck_truck"/>
    <trip id="truck105" depart="2023.87" from="770901750#0" to="825288063#1" departLane="best" type="truck_truck" departSpeed="max"/>
    <trip id="truck106" depart="2043.14" from="279154263" to="-49934843#0" departLane="best" type="truck_truck" departSpeed="max"/>
    <trip id="truck107" depart="2062.42" from="505739792" to="246170015#0" departLane="best" type="truck_truck" departSpeed="max"/>
    <trip id="truck108" depart="2081.69" from="505739792" to="-558255409#1" departLane="best" type="truck_truck" departSpeed="max"/>
    <trip id="truck109" depart="2100.97" from="-1340003587#0" to="860776043#1" departLane="best" type="truck_truck"/>
    <trip id="truck110" depart="2120.24" from="770901750#0" to="-4253994#2" departLane="best" type="truck_truck" departSpeed="max"/>
    <trip id="truck111" depart="2139.52" from="746410872#0" to="-587317657#1" departLane="best" type="truck_truck" departSpeed="max"/>
    <trip id="truck112" depart="2158.79" from="-747155719#1" to="997309342#3" departLane="best" type="truck_truck"/>
    <trip id="truck113" depart="2178.07" from="-306452424#2" to="997309342#0" departLane="best" type="truck_truck"/>
    <trip id="truck114" depart="2197.34" from="-360934008#2" to="4059325#4" departLane="best" type="truck_truck"/>
    <trip id="truck115" depart="2216.62" from="1200987340" to="49932187" departLane="best" type="truck_truck" departSpeed="max"/>
    <trip id="truck116" depart="2235.89" from="360934008#1" to="237413929#3" departLane="best" type="truck_truck"/>
    <trip id="truck117" depart="2255.17" from="505739792" to="-675079978#0" departLane="best" type="truck_truck" departSpeed="max"/>
    <trip id="truck118" depart="2274.44" from="1200989934" to="-49932184#0" departLane="best" type="truck_truck"/>
    <trip id="truck119" depart="2293.72" from="3087449#3" to="675079978#3" departLane="best" type="truck_truck"/>
    <trip id="truck120" depart="2312.99" from="314895559" to="-884555174#0" departLane="best" type="truck_truck"/>
    <trip id="truck121" depart="2332.27" from="485039786#0" to="-1112581137#0" departLane="best" type="truck_truck" departSpeed="max"/>
    <trip id="truck122" depart="2351.54" from="770901750#0" to="3087449#3" departLane="best" type="truck_truck" departSpeed="max"/>
    <trip id="truck123" depart="2370.82" from="4257237#0" to="-825288054" departLane="best" type="truck_truck"/>
    <trip id="truck124" depart="2390.09" from="4257235" to="-237413929#2" departLane="best" type="truck_truck" departSpeed="max"/>
    <trip id="truck125" depart="2409.37" from="-3087449#2" to="3128349#4" departLane="best" type="truck_truck"/>
    <trip id="truck126" depart="2428.64" from="4059327#1" to="589640599" departLane="best" type="truck_truck"/>
    <trip id="truck127" depart="2447.92" from="1112581137#0" to="-587317657#1" departLane="best" type="truck_truck" departSpeed="max"/>
    <trip id="truck128" depart="2467.19" from="-542832662" to="-837448598" departLane="best" type="truck_truck"/>
    <trip id="truck129" depart="2486.47" from="-541926390#1" to="303559639#0" departLane="best" type="truck_truck"/>
    <trip id="truck130" depart="2505.74" from="-1065177554#0" to="-1065127939#0" departLane="best" type="truck_truck"/>
    <trip id="truck131" depart="2525.02" from="823008429" to="4253998#1" departLane="best" type="truck_truck"/>
    <trip id="truck132" depart="2544.29" from="4257235" to="1051341393" departLane="best" type="truck_truck" departSpeed="max"/>
    <trip id="truck133" depart="2563.57" from="-746410870" to="18309858#2" departLane="best" type="truck_truck"/>
    <trip id="truck134" depart="2582.84" from="881317812" to="49932184#1" departLane="best" type="truck_truck"/>
    <trip id="truck135" depart="2602.12" from="-746410870" to="876833210" departLane="best" type="truck_truck"/>
    <trip id="truck136" depart="2621.39" from="-306452416#1" to="-4256304" departLane="best" type="truck_truck"/>
    <trip id="truck137" depart="2640.67" from="-4257237#1" to="825288054" departLane="best" type="truck_truck" departSpeed="max"/>
    <trip id="truck138" depart="2659.94" from="542832660#0" to="-4256304" departLane="best" type="truck_truck"/>
    <trip id="truck139" depart="2679.22" from="1200987340" to="-3087449#0" departLane="best" type="truck_truck" departSpeed="max"/>
    <trip id="truck140" depart="2698.49" from="1340003587#1" to="860776043#0" departLane="best" type="truck_truck"/>
    <trip id="truck141" depart="2717.77" from="-884555186" to="-4256304" departLane="best" type="truck_truck"/>
    <trip id="truck142" depart="2737.04" from="-4257237#0" to="3087449#2" departLane="best" type="truck_truck"/>
    <trip id="truck143" depart="2756.32" from="913020667" to="27188930" departLane="best" type="truck_truck"/>
    <trip id="truck144" depart="2775.59" from="825288063#1" to="587315169#1" departLane="best" type="truck_truck"/>
    <trip id="truck145" depart="2794.87" from="505739792" to="-8173312" departLane="best" type="truck_truck" departSpeed="max"/>
    <trip id="truck146" depart="2814.14" from="24936218" to="236141635#0" departLane="best" type="truck_truck"/>
    <trip id="truck147" depart="2833.42" from="587315169#1" to="-4253998#0" departLane="best" type="truck_truck"/>
    <trip id="truck148" depart="2852.69" from="1065177555" to="825288052" departLane="best" type="truck_truck" departSpeed="max"/>
    <trip id="truck149" depart="2871.97" from="770901750#0" to="1007519979" departLane="best" type="truck_truck" departSpeed="max"/>
    <trip id="truck150" depart="2891.24" from="-884555182" to="4253995#1" departLane="best" type="truck_truck"/>
    <trip id="truck151" depart="2910.52" from="-694563843" to="-189241670#0" departLane="best" type="truck_truck"/>
    <trip id="truck152" depart="2929.79" from="150133378#0" to="-746410871" departLane="best" type="truck_truck"/>
    <trip id="truck153" depart="2949.07" from="-17513383#2" to="589640599" departLane="best" type="truck_truck"/>
    <trip id="truck154" depart="2968.34" from="1232962008" to="402061426#1" departLane="best" type="truck_truck"/>
    <trip id="truck155" depart="2987.62" from="236141635#1" to="-825515804" departLane="best" type="truck_truck"/>
    <trip id="truck156" depart="3006.89" from="-541926390#3" to="485039787#1" departLane="best" type="truck_truck" departSpeed="max"/>
    <trip id="truck157" depart="3026.17" from="1205368709" to="-825288057" departLane="best" type="truck_truck"/>
    <trip id="truck158" depart="3045.44" from="860776043#0" to="747155719#1" departLane="best" type="truck_truck"/>
    <trip id="truck159" depart="3064.72" from="26763531" to="-49932184#1" departLane="best" type="truck_truck" departSpeed="max"/>
    <trip id="truck160" depart="3083.99" from="694562117" to="1006641969" departLane="best" type="truck_truck"/>
    <trip id="truck161" depart="3103.27" from="1112581134" to="-306452416#1" departLane="best" type="truck_truck"/>
    <trip id="truck162" depart="3122.54" from="-4059325#3" to="987343785#1" departLane="best" type="truck_truck"/>
    <trip id="truck163" depart="3141.82" from="26763531" to="3128255#2" departLane="best" type="truck_truck" departSpeed="max"/>
    <trip id="truck164" depart="3161.09" from="-1065127941" to="746410865" departLane="best" type="truck_truck" departSpeed="max"/>
    <trip id="truck165" depart="3180.37" from="-913020667" to="4059325#1" departLane="best" type="truck_truck"/>
    <trip id="truck166" depart="3199.64" from="-1211612020#1" to="1059707542#0" departLane="best" type="truck_truck"/>
    <trip id="truck167" depart="3218.92" from="825515804" to="1065127941" departLane="best" type="truck_truck"/>
    <trip id="truck168" depart="3238.19" from="-1065127939#1" to="26294450#0" departLane="best" type="truck_truck"/>
    <trip id="truck169" depart="3257.47" from="3087449#3" to="402061426#1" departLane="best" type="truck_truck"/>
    <trip id="truck170" depart="3276.74" from="17513383#3" to="31259042" departLane="best" type="truck_truck"/>
    <trip id="truck171" depart="3296.02" from="4059307#3" to="-49932184#0" departLane="best" type="truck_truck"/>
    <trip id="truck172" depart="3315.29" from="1065177555" to="1065127939#1" departLane="best" type="truck_truck" departSpeed="max"/>
    <trip id="truck173" depart="3334.57" from="3087449#3" to="62036628" departLane="best" type="truck_truck"/>
    <trip id="truck174" depart="3353.84" from="746410872#0" to="-587317657#1" departLane="best" type="truck_truck" departSpeed="max"/>
    <trip id="truck175" depart="3373.12" from="587315169#1" to="837448598" departLane="best" type="truck_truck"/>
    <trip id="truck176" depart="3392.39" from="4257235" to="-4253995#0" departLane="best" type="truck_truck" departSpeed="max"/>
    <trip id="truck177" depart="3411.67" from="694563843" to="-1100812341#0" departLane="best" type="truck_truck"/>
    <trip id="truck178" depart="3430.94" from="1112581137#0" to="4082615#1" departLane="best" type="truck_truck" departSpeed="max"/>
    <trip id="truck179" depart="3450.22" from="-851719169" to="314436317#1" departLane="best" type="truck_truck"/>
    <trip id="truck180" depart="3469.49" from="26763531" to="-1112581137#1" departLane="best" type="truck_truck" departSpeed="max"/>
    <trip id="truck181" depart="3488.77" from="913020667" to="8173099" departLane="best" type="truck_truck"/>
    <trip id="truck182" depart="3508.04" from="-360934008#2" to="-884555178" departLane="best" type="truck_truck"/>
    <trip id="truck183" depart="3527.31" from="279154263" to="746410871" departLane="best" type="truck_truck" departSpeed="max"/>
    <trip id="truck184" depart="3546.59" from="746410866" to="402061426#1" departLane="best" type="truck_truck"/>
    <trip id="truck185" depart="3565.86" from="823008429" to="1006641971#1" departLane="best" type="truck_truck"/>
    <trip id="truck186" depart="3585.14" from="1112581137#0" to="2876128#2" departLane="best" type="truck_truck" departSpeed="max"/>
</routes>
