<?xml version="1.0" encoding="UTF-8"?>

<!-- generated on 2025-10-26 14:34:58.392939 by osmWebWizard.py v1_24_0+0000-b72eb3fabc8
<configuration>
    <net-file value="C:\Program Files (x86)\Eclipse\Sumo\tools\2025-10-26-14-34-38\osm.net.xml.gz"/>
    <output-trip-file value="C:\Program Files (x86)\Eclipse\Sumo\tools\2025-10-26-14-34-38\osm.passenger.trips.xml"/>
    <route-file value="C:\Program Files (x86)\Eclipse\Sumo\tools\2025-10-26-14-34-38\osm.passenger.rou.xml"/>
    <prefix value="veh"/>
    <trip-attributes value="departLane=&quot;best&quot;"/>
    <fringe-start-attributes value="departSpeed=&quot;max&quot;"/>
    <vehicle-class value="passenger"/>
    <lanes value="True"/>
    <fringe-factor value="5"/>
    <allow-fringe.min-length value="1000.0"/>
    <edge-permission value="passenger"/>
    <via-edge-types value="highway.motorway,highway.motorway_link,highway.trunk_link,highway.primary_link,highway.secondary_link,highway.tertiary_link"/>
    <seed value="45"/>
    <min-distance value="300.0"/>
    <min-distance.fringe value="10.0"/>
    <remove-loops value="True"/>
    <insertion-density value="12.0"/>
</configuration>
-->

<routes xmlns:xsi="http://www.w3.org/2001/XMLSchema-instance" xsi:noNamespaceSchemaLocation="http://sumo.dlr.de/xsd/routes_file.xsd">
    <vType id="veh_passenger" vClass="passenger"/>
    <trip id="veh0" depart="0.00" from="-884555174#0" to="1211000762" departLane="best" type="veh_passenger"/>
    <trip id="veh1" depart="12.85" from="-311804827#1" to="-996665163" departLane="best" type="veh_passenger"/>
    <trip id="veh2" depart="25.70" from="-306452424#0" to="-1062480575" departLane="best" type="veh_passenger"/>
    <trip id="veh3" depart="38.55" from="1006631258#2" to="485039787#1" departLane="best" type="veh_passenger"/>
    <trip id="veh4" depart="51.40" from="746410872#0" to="4253998#1" departLane="best" type="veh_passenger" departSpeed="max"/>
    <trip id="veh5" depart="64.25" from="-3087449#0" to="1062480574" departLane="best" type="veh_passenger"/>
    <trip id="veh6" depart="77.10" from="542832660#1" to="884555174#0" departLane="best" type="veh_passenger"/>
    <trip id="veh7" depart="89.95" from="1065177555" to="8173099" departLane="best" type="veh_passenger" departSpeed="max"/>
    <trip id="veh8" depart="102.80" from="675079978#1" to="314895559" departLane="best" type="veh_passenger"/>
    <trip id="veh9" depart="115.65" from="3087449#3" to="-18309858#1" departLane="best" type="veh_passenger"/>
    <trip id="veh10" depart="128.50" from="1112581135" to="687481231#1" departLane="best" type="veh_passenger"/>
    <trip id="veh11" depart="141.35" from="-3127740#2" to="1007655985" departLane="best" type="veh_passenger"/>
    <trip id="veh12" depart="154.20" from="8173312" to="31259042" departLane="best" type="veh_passenger"/>
    <trip id="veh13" depart="167.05" from="-1100812341#1" to="747147372#0" departLane="best" type="veh_passenger"/>
    <trip id="veh14" depart="179.90" from="4059308#0" to="17929796#1" departLane="best" type="veh_passenger"/>
    <trip id="veh15" depart="192.75" from="-237413929#2" to="876833209#1" departLane="best" type="veh_passenger"/>
    <trip id="veh16" depart="205.60" from="-4059306#0" to="3127740#0" departLane="best" type="veh_passenger"/>
    <trip id="veh17" depart="218.45" from="303559648#3" to="1006641971#1" departLane="best" type="veh_passenger"/>
    <trip id="veh18" depart="231.30" from="-884555181" to="1112581134" departLane="best" type="veh_passenger"/>
    <trip id="veh19" depart="244.15" from="38444000" to="17929796#1" departLane="best" type="veh_passenger"/>
    <trip id="veh20" depart="257.00" from="4059325#2" to="1245947684" departLane="best" type="veh_passenger"/>
    <trip id="veh21" depart="269.85" from="-4253998#1" to="-1100812341#1" departLane="best" type="veh_passenger" departSpeed="max"/>
    <trip id="veh22" depart="282.70" from="884555174#1" to="746410866" departLane="best" type="veh_passenger"/>
    <trip id="veh23" depart="295.55" from="-316352257#1" to="31259042" departLane="best" type="veh_passenger"/>
    <trip id="veh24" depart="308.40" from="-303559648#4" to="-4059325#2" departLane="best" type="veh_passenger"/>
    <trip id="veh25" depart="321.25" from="746410872#0" to="1007655988" departLane="best" type="veh_passenger" departSpeed="max"/>
    <trip id="veh26" depart="334.10" from="746410872#0" to="1007519989" departLane="best" type="veh_passenger" departSpeed="max"/>
    <trip id="veh27" depart="346.95" from="1112581130" to="1007519987#0" departLane="best" type="veh_passenger"/>
    <trip id="veh28" depart="359.80" from="746410872#0" to="41588157" departLane="best" type="veh_passenger" departSpeed="max"/>
    <trip id="veh29" depart="372.65" from="237413929#1" to="4253998#0" departLane="best" type="veh_passenger"/>
    <trip id="veh30" depart="385.50" from="4253988#1" to="306452424#1" departLane="best" type="veh_passenger"/>
    <trip id="veh31" depart="398.35" from="758462266#0" to="314436317#2" departLane="best" type="veh_passenger"/>
    <trip id="veh32" depart="411.20" from="825288054" to="-587317657#1" departLane="best" type="veh_passenger"/>
    <trip id="veh33" depart="424.05" from="4059306#2" to="614306543#1" departLane="best" type="veh_passenger"/>
    <trip id="veh34" depart="436.90" from="746410872#0" to="1007519989" departLane="best" type="veh_passenger" departSpeed="max"/>
    <trip id="veh35" depart="449.75" from="997309342#1" to="1186049315" departLane="best" type="veh_passenger"/>
    <trip id="veh36" depart="462.60" from="825288047#0" to="27188930" departLane="best" type="veh_passenger"/>
    <trip id="veh37" depart="475.45" from="1065177555" to="681757485" departLane="best" type="veh_passenger" departSpeed="max"/>
    <trip id="veh38" depart="488.30" from="-303559648#2" to="1006641971#1" departLane="best" type="veh_passenger"/>
    <trip id="veh39" depart="501.15" from="26834676" to="1007655988" departLane="best" type="veh_passenger"/>
    <trip id="veh40" depart="514.00" from="-694563843" to="1062480573#0" departLane="best" type="veh_passenger"/>
    <trip id="veh41" depart="526.85" from="1112581134" to="306452416#0" departLane="best" type="veh_passenger"/>
    <trip id="veh42" depart="539.70" from="-360934008#2" to="38444000" departLane="best" type="veh_passenger"/>
    <trip id="veh43" depart="552.55" from="4059325#5" to="3127740#1" departLane="best" type="veh_passenger"/>
    <trip id="veh44" depart="565.40" from="614306543#0" to="987343785#1" departLane="best" type="veh_passenger"/>
    <trip id="veh45" depart="578.25" from="485039786#0" to="884555186" departLane="best" type="veh_passenger" departSpeed="max"/>
    <trip id="veh46" depart="591.10" from="4059307#1" to="-825288059" departLane="best" type="veh_passenger"/>
    <trip id="veh47" depart="603.95" from="747155719#1" to="4059307#1" departLane="best" type="veh_passenger"/>
    <trip id="veh48" depart="616.80" from="314895559" to="-41588157" departLane="best" type="veh_passenger"/>
    <trip id="veh49" depart="629.65" from="303559648#3" to="837448601" departLane="best" type="veh_passenger"/>
    <trip id="veh50" depart="642.50" from="1065177555" to="-1100812341#0" departLane="best" type="veh_passenger" departSpeed="max"/>
    <trip id="veh51" depart="655.35" from="746410872#0" to="-1232962008" departLane="best" type="veh_passenger" departSpeed="max"/>
    <trip id="veh52" depart="668.20" from="1112581135" to="-996665163" departLane="best" type="veh_passenger"/>
    <trip id="veh53" depart="681.05" from="1200989934" to="3128255#1" departLane="best" type="veh_passenger"/>
    <trip id="veh54" depart="693.90" from="758462267#0" to="608995227" departLane="best" type="veh_passenger"/>
    <trip id="veh55" depart="706.75" from="825288043" to="-4059308#1" departLane="best" type="veh_passenger"/>
    <trip id="veh56" depart="719.60" from="24936260#0" to="-589644425" departLane="best" type="veh_passenger"/>
    <trip id="veh57" depart="732.45" from="505739792" to="746410871" departLane="best" type="veh_passenger" departSpeed="max"/>
    <trip id="veh58" depart="745.30" from="825288047#0" to="17513383#3" departLane="best" type="veh_passenger"/>
    <trip id="veh59" depart="758.15" from="1112581137#0" to="-49932184#0" departLane="best" type="veh_passenger" departSpeed="max"/>
    <trip id="veh60" depart="771.00" from="237413929#1" to="758462266#0" departLane="best" type="veh_passenger"/>
    <trip id="veh61" depart="783.85" from="841065954" to="-4059326#0" departLane="best" type="veh_passenger"/>
    <trip id="veh62" depart="796.70" from="-4059325#5" to="996665162#1" departLane="best" type="veh_passenger"/>
    <trip id="veh63" depart="809.55" from="239761119" to="3128349#4" departLane="best" type="veh_passenger"/>
    <trip id="veh64" depart="822.40" from="1100812341#1" to="758462267#0" departLane="best" type="veh_passenger"/>
    <trip id="veh65" depart="835.25" from="-1340003587#0" to="694563843" departLane="best" type="veh_passenger"/>
    <trip id="veh66" depart="848.10" from="3087832#0" to="49932184#1" departLane="best" type="veh_passenger"/>
    <trip id="veh67" depart="860.95" from="18309858#0" to="4253998#1" departLane="best" type="veh_passenger"/>
    <trip id="veh68" depart="873.80" from="876833209#1" to="8173099" departLane="best" type="veh_passenger"/>
    <trip id="veh69" depart="886.65" from="26763531" to="-1200987340" departLane="best" type="veh_passenger" departSpeed="max"/>
    <trip id="veh70" depart="899.50" from="837448598" to="605078469#1" departLane="best" type="veh_passenger"/>
    <trip id="veh71" depart="912.35" from="35085540" to="884555174#1" departLane="best" type="veh_passenger"/>
    <trip id="veh72" depart="925.20" from="1007655987" to="3127740#0" departLane="best" type="veh_passenger"/>
    <trip id="veh73" depart="938.05" from="-4257237#1" to="-3128349#4" departLane="best" type="veh_passenger" departSpeed="max"/>
    <trip id="veh74" depart="950.90" from="913020667" to="825515804" departLane="best" type="veh_passenger"/>
    <trip id="veh75" depart="963.75" from="-884555185" to="-3128255#2" departLane="best" type="veh_passenger"/>
    <trip id="veh76" depart="976.60" from="1059707545" to="49934843#1" departLane="best" type="veh_passenger"/>
    <trip id="veh77" depart="989.45" from="860776043#0" to="1112581137#1" departLane="best" type="veh_passenger"/>
    <trip id="veh78" depart="1002.30" from="1200989935#1" to="31259042" departLane="best" type="veh_passenger"/>
    <trip id="veh79" depart="1015.15" from="913020667" to="-4059327#1" departLane="best" type="veh_passenger"/>
    <trip id="veh80" depart="1028.00" from="860776043#1" to="-851719169" departLane="best" type="veh_passenger"/>
    <trip id="veh81" depart="1040.85" from="-306452424#2" to="-4253988#2" departLane="best" type="veh_passenger"/>
    <trip id="veh82" depart="1053.70" from="35085540" to="-825515804" departLane="best" type="veh_passenger"/>
    <trip id="veh83" depart="1066.55" from="-1065127941" to="-1200987340" departLane="best" type="veh_passenger" departSpeed="max"/>
    <trip id="veh84" depart="1079.40" from="-823008428" to="1112581139#1" departLane="best" type="veh_passenger"/>
    <trip id="veh85" depart="1092.25" from="1112581135" to="851719169" departLane="best" type="veh_passenger"/>
    <trip id="veh86" depart="1105.10" from="360934008#4" to="-17513383#3" departLane="best" type="veh_passenger"/>
    <trip id="veh87" depart="1117.95" from="-541926390#1" to="675079978#2" departLane="best" type="veh_passenger"/>
    <trip id="veh88" depart="1130.80" from="746410875" to="1006641969" departLane="best" type="veh_passenger"/>
    <trip id="veh89" depart="1143.65" from="876833209#2" to="-49932184#0" departLane="best" type="veh_passenger"/>
    <trip id="veh90" depart="1156.50" from="1100812341#1" to="-49932184#0" departLane="best" type="veh_passenger"/>
    <trip id="veh91" depart="1169.35" from="-884555184#1" to="-558255409#1" departLane="best" type="veh_passenger"/>
    <trip id="veh92" depart="1182.20" from="4059306#2" to="49932187" departLane="best" type="veh_passenger"/>
    <trip id="veh93" depart="1195.05" from="770901750#0" to="-4059325#5" departLane="best" type="veh_passenger" departSpeed="max"/>
    <trip id="veh94" depart="1207.90" from="997309342#1" to="4059327#1" departLane="best" type="veh_passenger"/>
    <trip id="veh95" depart="1220.75" from="-884555174#1" to="-306452424#2" departLane="best" type="veh_passenger"/>
    <trip id="veh96" depart="1233.60" from="-694562111#1" to="746410875" departLane="best" type="veh_passenger"/>
    <trip id="veh97" depart="1246.45" from="1205368709" to="-587317657#1" departLane="best" type="veh_passenger"/>
    <trip id="veh98" depart="1259.30" from="1112581141" to="-49932184#0" departLane="best" type="veh_passenger"/>
    <trip id="veh99" depart="1272.15" from="1006631258#2" to="4059326#0" departLane="best" type="veh_passenger"/>
    <trip id="veh100" depart="1285.00" from="746410872#0" to="1340003587#1" departLane="best" type="veh_passenger" departSpeed="max"/>
    <trip id="veh101" depart="1297.85" from="235993022#0" to="-1065258328#2" departLane="best" type="veh_passenger"/>
    <trip id="veh102" depart="1310.70" from="558255409#0" to="825288063#0" departLane="best" type="veh_passenger"/>
    <trip id="veh103" depart="1323.55" from="1340003587#1" to="4253998#1" departLane="best" type="veh_passenger"/>
    <trip id="veh104" depart="1336.40" from="770901750#0" to="239761119" departLane="best" type="veh_passenger" departSpeed="max"/>
    <trip id="veh105" depart="1349.25" from="-4257237#1" to="314436317#0" departLane="best" type="veh_passenger" departSpeed="max"/>
    <trip id="veh106" depart="1362.10" from="3127740#1" to="1205368718#1" departLane="best" type="veh_passenger"/>
    <trip id="veh107" depart="1374.95" from="-996665163" to="2876128#1" departLane="best" type="veh_passenger"/>
    <trip id="veh108" depart="1387.80" from="1186049313#1" to="881317813" departLane="best" type="veh_passenger"/>
    <trip id="veh109" depart="1400.65" from="49934825#1" to="314436317#0" departLane="best" type="veh_passenger"/>
    <trip id="veh110" depart="1413.50" from="823008429" to="-675079978#3" departLane="best" type="veh_passenger"/>
    <trip id="veh111" depart="1426.35" from="823008429" to="589640599" departLane="best" type="veh_passenger"/>
    <trip id="veh112" depart="1439.20" from="4059308#1" to="1065258328#1" departLane="best" type="veh_passenger"/>
    <trip id="veh113" depart="1452.05" from="837448597#1" to="485039787#1" departLane="best" type="veh_passenger"/>
    <trip id="veh114" depart="1464.90" from="8173099" to="884555184#0" departLane="best" type="veh_passenger"/>
    <trip id="veh115" depart="1477.75" from="1112581137#0" to="1059707542#1" departLane="best" type="veh_passenger" departSpeed="max"/>
    <trip id="veh116" depart="1490.60" from="884555182" to="-1112581137#0" departLane="best" type="veh_passenger"/>
    <trip id="veh117" depart="1503.45" from="876833209#0" to="675079978#2" departLane="best" type="veh_passenger"/>
    <trip id="veh118" depart="1516.30" from="-541926390#3" to="3128255#2" departLane="best" type="veh_passenger" departSpeed="max"/>
    <trip id="veh119" depart="1529.15" from="1065177555" to="49932184#1" departLane="best" type="veh_passenger" departSpeed="max"/>
    <trip id="veh120" depart="1542.00" from="825288063#1" to="49932187" departLane="best" type="veh_passenger"/>
    <trip id="veh121" depart="1554.85" from="18309858#1" to="1205368697" departLane="best" type="veh_passenger"/>
    <trip id="veh122" depart="1567.70" from="4257239" to="4059325#5" departLane="best" type="veh_passenger" departSpeed="max"/>
    <trip id="veh123" depart="1580.55" from="825288047#0" to="-747147375#1" departLane="best" type="veh_passenger"/>
    <trip id="veh124" depart="1593.40" from="1007519980" to="314436317#2" departLane="best" type="veh_passenger"/>
    <trip id="veh125" depart="1606.25" from="-41588174#1" to="-837448598" departLane="best" type="veh_passenger"/>
    <trip id="veh126" depart="1619.10" from="-4059325#3" to="4253998#0" departLane="best" type="veh_passenger"/>
    <trip id="veh127" depart="1631.95" from="150133378#0" to="-3128255#1" departLane="best" type="veh_passenger"/>
    <trip id="veh128" depart="1644.80" from="746410872#0" to="246170016" departLane="best" type="veh_passenger" departSpeed="max"/>
    <trip id="veh129" depart="1657.65" from="4059307#4" to="-675079978#2" departLane="best" type="veh_passenger"/>
    <trip id="veh130" depart="1670.50" from="4253988#1" to="-9616291" departLane="best" type="veh_passenger"/>
    <trip id="veh131" depart="1683.35" from="884555185" to="-189241670#0" departLane="best" type="veh_passenger"/>
    <trip id="veh132" depart="1696.20" from="-4253994#2" to="-4059325#4" departLane="best" type="veh_passenger"/>
    <trip id="veh133" depart="1709.05" from="49934847" to="24936218" departLane="best" type="veh_passenger"/>
    <trip id="veh134" depart="1721.90" from="360934008#2" to="504568375#0" departLane="best" type="veh_passenger"/>
    <trip id="veh135" depart="1734.75" from="746410872#0" to="26834677#1" departLane="best" type="veh_passenger" departSpeed="max"/>
    <trip id="veh136" depart="1747.60" from="-884555174#1" to="-1065127939#0" departLane="best" type="veh_passenger"/>
    <trip id="veh137" depart="1760.44" from="-4257237#1" to="306452424#0" departLane="best" type="veh_passenger" departSpeed="max"/>
    <trip id="veh138" depart="1773.29" from="26763531" to="303559639#4" departLane="best" type="veh_passenger" departSpeed="max"/>
    <trip id="veh139" depart="1786.14" from="997309342#4" to="18309858#0" departLane="best" type="veh_passenger"/>
    <trip id="veh140" depart="1798.99" from="62036633" to="236141635#1" departLane="best" type="veh_passenger"/>
    <trip id="veh141" depart="1811.84" from="-542832660#1" to="825288043" departLane="best" type="veh_passenger"/>
    <trip id="veh142" depart="1824.69" from="-18309858#1" to="694563843" departLane="best" type="veh_passenger"/>
    <trip id="veh143" depart="1837.54" from="4059306#1" to="1006641971#1" departLane="best" type="veh_passenger"/>
    <trip id="veh144" depart="1850.39" from="26763531" to="687481231#0" departLane="best" type="veh_passenger" departSpeed="max"/>
    <trip id="veh145" depart="1863.24" from="1065177555" to="997309342#1" departLane="best" type="veh_passenger" departSpeed="max"/>
    <trip id="veh146" depart="1876.09" from="-360934008#1" to="49934840#0" departLane="best" type="veh_passenger"/>
    <trip id="veh147" depart="1888.94" from="-746410870" to="913020667" departLane="best" type="veh_passenger"/>
    <trip id="veh148" depart="1901.79" from="3127740#1" to="-1340003587#0" departLane="best" type="veh_passenger"/>
    <trip id="veh149" depart="1914.64" from="24936218" to="-4059308#1" departLane="best" type="veh_passenger"/>
    <trip id="veh150" depart="1927.49" from="1007519980" to="4059307#0" departLane="best" type="veh_passenger"/>
    <trip id="veh151" depart="1940.34" from="-311804827#1" to="681757485" departLane="best" type="veh_passenger"/>
    <trip id="veh152" depart="1953.19" from="1007519979" to="-316158482#1" departLane="best" type="veh_passenger"/>
    <trip id="veh153" depart="1966.04" from="24936218" to="4059307#0" departLane="best" type="veh_passenger"/>
    <trip id="veh154" depart="1978.89" from="876833209#0" to="38444000" departLane="best" type="veh_passenger"/>
    <trip id="veh155" depart="1991.74" from="841081307" to="24936260#0" departLane="best" type="veh_passenger"/>
    <trip id="veh156" depart="2004.59" from="-24936260#2" to="3128349#4" departLane="best" type="veh_passenger"/>
    <trip id="veh157" depart="2017.44" from="746410875" to="1211000762" departLane="best" type="veh_passenger"/>
    <trip id="veh158" depart="2030.29" from="4082615#1" to="237413929#1" departLane="best" type="veh_passenger"/>
    <trip id="veh159" depart="2043.14" from="614306542#0" to="1340003587#0" departLane="best" type="veh_passenger"/>
    <trip id="veh160" depart="2055.99" from="823008429" to="996665162#1" departLane="best" type="veh_passenger"/>
    <trip id="veh161" depart="2068.84" from="239761119" to="-685020269#1" departLane="best" type="veh_passenger"/>
    <trip id="veh162" depart="2081.69" from="825175712" to="-3128255#3" departLane="best" type="veh_passenger"/>
    <trip id="veh163" depart="2094.54" from="1112581129" to="825288063#1" departLane="best" type="veh_passenger"/>
    <trip id="veh164" depart="2107.39" from="-1232962008" to="681757485" departLane="best" type="veh_passenger"/>
    <trip id="veh165" depart="2120.24" from="-303559648#2" to="485039787#1" departLane="best" type="veh_passenger"/>
    <trip id="veh166" depart="2133.09" from="876833209#0" to="-1100812341#0" departLane="best" type="veh_passenger"/>
    <trip id="veh167" depart="2145.94" from="-9616291" to="-587317657#1" departLane="best" type="veh_passenger"/>
    <trip id="veh168" depart="2158.79" from="-884555174#1" to="-4253996#1" departLane="best" type="veh_passenger"/>
    <trip id="veh169" depart="2171.64" from="-558255409#1" to="561132269#0" departLane="best" type="veh_passenger"/>
    <trip id="veh170" depart="2184.49" from="876833209#0" to="-4253995#1" departLane="best" type="veh_passenger"/>
    <trip id="veh171" depart="2197.34" from="-837448601" to="17513383#2" departLane="best" type="veh_passenger"/>
    <trip id="veh172" depart="2210.19" from="694562117" to="8173312" departLane="best" type="veh_passenger"/>
    <trip id="veh173" depart="2223.04" from="-17513383#3" to="1065258328#1" departLane="best" type="veh_passenger"/>
    <trip id="veh174" depart="2235.89" from="-837448601" to="-558255409#1" departLane="best" type="veh_passenger"/>
    <trip id="veh175" depart="2248.74" from="-1340003587#1" to="-558255409#1" departLane="best" type="veh_passenger"/>
    <trip id="veh176" depart="2261.59" from="884555184#1" to="-913020667" departLane="best" type="veh_passenger"/>
    <trip id="veh177" depart="2274.44" from="4257235" to="1059707542#1" departLane="best" type="veh_passenger" departSpeed="max"/>
    <trip id="veh178" depart="2287.29" from="837448598" to="-3087449#2" departLane="best" type="veh_passenger"/>
    <trip id="veh179" depart="2300.14" from="746410872#0" to="4253998#1" departLane="best" type="veh_passenger" departSpeed="max"/>
    <trip id="veh180" depart="2312.99" from="747155719#1" to="-1062480575" departLane="best" type="veh_passenger"/>
    <trip id="veh181" depart="2325.84" from="306452416#2" to="-1415942083#1" departLane="best" type="veh_passenger"/>
    <trip id="veh182" depart="2338.69" from="-825288059" to="1006641971#1" departLane="best" type="veh_passenger"/>
    <trip id="veh183" depart="2351.54" from="884555186" to="825288052" departLane="best" type="veh_passenger"/>
    <trip id="veh184" depart="2364.39" from="-1065127939#1" to="62036630" departLane="best" type="veh_passenger"/>
    <trip id="veh185" depart="2377.24" from="876833209#1" to="-567941579" departLane="best" type="veh_passenger"/>
    <trip id="veh186" depart="2390.09" from="-825288043" to="-49932184#0" departLane="best" type="veh_passenger"/>
    <trip id="veh187" depart="2402.94" from="1112581134" to="758462266#1" departLane="best" type="veh_passenger"/>
    <trip id="veh188" depart="2415.79" from="-4059325#5" to="589640599" departLane="best" type="veh_passenger"/>
    <trip id="veh189" depart="2428.64" from="758462267#0" to="561132269#1" departLane="best" type="veh_passenger"/>
    <trip id="veh190" depart="2441.49" from="746410872#0" to="913020667" departLane="best" type="veh_passenger" departSpeed="max"/>
    <trip id="veh191" depart="2454.34" from="675079978#0" to="876833209#1" departLane="best" type="veh_passenger"/>
    <trip id="veh192" depart="2467.19" from="1007655987" to="-49934843#0" departLane="best" type="veh_passenger"/>
    <trip id="veh193" depart="2480.04" from="860776044#0" to="-49932184#0" departLane="best" type="veh_passenger"/>
    <trip id="veh194" depart="2492.89" from="1065177555" to="-825515804" departLane="best" type="veh_passenger" departSpeed="max"/>
    <trip id="veh195" depart="2505.74" from="1062480574" to="-694562117" departLane="best" type="veh_passenger"/>
    <trip id="veh196" depart="2518.59" from="505739792" to="-316158482#1" departLane="best" type="veh_passenger" departSpeed="max"/>
    <trip id="veh197" depart="2531.44" from="860776043#1" to="-1065177554#0" departLane="best" type="veh_passenger"/>
    <trip id="veh198" depart="2544.29" from="825175712" to="1006641971#1" departLane="best" type="veh_passenger"/>
    <trip id="veh199" depart="2557.14" from="-1065258328#2" to="876833209#2" departLane="best" type="veh_passenger"/>
    <trip id="veh200" depart="2569.99" from="150133378#1" to="-4059326#0" departLane="best" type="veh_passenger"/>
    <trip id="veh201" depart="2582.84" from="26763531" to="1205368696" departLane="best" type="veh_passenger" departSpeed="max"/>
    <trip id="veh202" depart="2595.69" from="825288043" to="-189241670#0" departLane="best" type="veh_passenger"/>
    <trip id="veh203" depart="2608.54" from="-4059325#4" to="4253998#0" departLane="best" type="veh_passenger"/>
    <trip id="veh204" depart="2621.39" from="-541926390#3" to="884555182" departLane="best" type="veh_passenger" departSpeed="max"/>
    <trip id="veh205" depart="2634.24" from="746410865" to="-49932184#1" departLane="best" type="veh_passenger"/>
    <trip id="veh206" depart="2647.09" from="150133378#0" to="1112581131#1" departLane="best" type="veh_passenger"/>
    <trip id="veh207" depart="2659.94" from="884555174#1" to="605078469#0" departLane="best" type="veh_passenger"/>
    <trip id="veh208" depart="2672.79" from="-311804827#0" to="-1415942083#1" departLane="best" type="veh_passenger"/>
    <trip id="veh209" depart="2685.64" from="-685020269#1" to="18309858#0" departLane="best" type="veh_passenger"/>
    <trip id="veh210" depart="2698.49" from="-825288059" to="884555184#0" departLane="best" type="veh_passenger"/>
    <trip id="veh211" depart="2711.34" from="-884555174#1" to="1006641971#1" departLane="best" type="veh_passenger"/>
    <trip id="veh212" depart="2724.19" from="-1065127941" to="-746410870" departLane="best" type="veh_passenger" departSpeed="max"/>
    <trip id="veh213" depart="2737.04" from="876833209#2" to="-237413929#3" departLane="best" type="veh_passenger"/>
    <trip id="veh214" depart="2749.89" from="-541926390#3" to="-675079978#0" departLane="best" type="veh_passenger" departSpeed="max"/>
    <trip id="veh215" depart="2762.74" from="-884555184#1" to="485039787#1" departLane="best" type="veh_passenger"/>
    <trip id="veh216" depart="2775.59" from="-4059325#5" to="681757485" departLane="best" type="veh_passenger"/>
    <trip id="veh217" depart="2788.44" from="62036635" to="1245947684" departLane="best" type="veh_passenger"/>
    <trip id="veh218" depart="2801.29" from="24936216" to="-303559648#2" departLane="best" type="veh_passenger"/>
    <trip id="veh219" depart="2814.14" from="884555174#0" to="1100812341#0" departLane="best" type="veh_passenger"/>
    <trip id="veh220" depart="2826.99" from="823008429" to="311804826" departLane="best" type="veh_passenger"/>
    <trip id="veh221" depart="2839.84" from="-41588157" to="881317813" departLane="best" type="veh_passenger"/>
    <trip id="veh222" depart="2852.69" from="587317657#0" to="837448601" departLane="best" type="veh_passenger" departSpeed="max"/>
    <trip id="veh223" depart="2865.54" from="1006631257" to="-189241670#0" departLane="best" type="veh_passenger"/>
    <trip id="veh224" depart="2878.39" from="-360934008#1" to="675079978#2" departLane="best" type="veh_passenger"/>
    <trip id="veh225" depart="2891.24" from="-4257237#0" to="311804827#0" departLane="best" type="veh_passenger"/>
    <trip id="veh226" depart="2904.09" from="876833209#1" to="501243983" departLane="best" type="veh_passenger"/>
    <trip id="veh227" depart="2916.94" from="-360934008#2" to="-41588157" departLane="best" type="veh_passenger"/>
    <trip id="veh228" depart="2929.79" from="881317813" to="18309858#1" departLane="best" type="veh_passenger"/>
    <trip id="veh229" depart="2942.64" from="3087832#1" to="-587317657#1" departLane="best" type="veh_passenger"/>
    <trip id="veh230" depart="2955.49" from="4257235" to="1100812341#1" departLane="best" type="veh_passenger" departSpeed="max"/>
    <trip id="veh231" depart="2968.34" from="1006630385" to="314436317#2" departLane="best" type="veh_passenger"/>
    <trip id="veh232" depart="2981.19" from="1232962008" to="987343785#1" departLane="best" type="veh_passenger"/>
    <trip id="veh233" depart="2994.04" from="-841081307" to="-4059325#1" departLane="best" type="veh_passenger"/>
    <trip id="veh234" depart="3006.89" from="-1062480575" to="589640599" departLane="best" type="veh_passenger"/>
    <trip id="veh235" depart="3019.74" from="876833209#1" to="-189241670#0" departLane="best" type="veh_passenger"/>
    <trip id="veh236" depart="3032.59" from="825288043" to="825175712" departLane="best" type="veh_passenger"/>
    <trip id="veh237" depart="3045.44" from="825175712" to="1065127941" departLane="best" type="veh_passenger"/>
    <trip id="veh238" depart="3058.29" from="-4253998#0" to="-3087449#2" departLane="best" type="veh_passenger"/>
    <trip id="veh239" depart="3071.14" from="-4257237#1" to="746410872#1" departLane="best" type="veh_passenger" departSpeed="max"/>
    <trip id="veh240" depart="3083.99" from="311804826" to="-884555185" departLane="best" type="veh_passenger"/>
    <trip id="veh241" depart="3096.84" from="235993022#0" to="1007519966" departLane="best" type="veh_passenger"/>