<?xml version="1.0" encoding="UTF-8"?>

<!-- generated on 2025-10-26 14:34:59.807626 by osmWebWizard.py v1_24_0+0000-b72eb3fabc8
<configuration>
    <net-file value="C:\Program Files (x86)\Eclipse\Sumo\tools\2025-10-26-14-34-38\osm.net.xml.gz"/>
    <output-trip-file value="C:\Program Files (x86)\Eclipse\Sumo\tools\2025-10-26-14-34-38\osm.pedestrian.trips.xml"/>
    <route-file value="C:\Program Files (x86)\Eclipse\Sumo\tools\2025-10-26-14-34-38\osm.pedestrian.rou.xml"/>
    <pedestrians value="True"/>
    <prefix value="ped"/>
    <vehicle-class value="pedestrian"/>
    <fringe-factor value="1"/>
    <seed value="46"/>
    <max-distance value="2000.0"/>
    <insertion-density value="10.0"/>
</configuration>
-->

<routes xmlns:xsi="http://www.w3.org/2001/XMLSchema-instance" xsi:noNamespaceSchemaLocation="http://sumo.dlr.de/xsd/routes_file.xsd">
    <vType id="ped_pedestrian" vClass="pedestrian"/>
    <person id="ped0" depart="0.00" type="ped_pedestrian">
        <walk from="868435449#2" to="1340362668"/>
    </person>
    <person id="ped1" depart="7.78" type="ped_pedestrian">
        <walk from="343251278#0" to="849005538"/>
    </person>
    <person id="ped2" depart="15.55" type="ped_pedestrian">
        <walk from="1308890806" to="26834303#1"/>
    </person>
    <person id="ped3" depart="23.33" type="ped_pedestrian">
        <walk from="330197785" to="90028239#3"/>
    </person>
    <person id="ped4" depart="31.11" type="ped_pedestrian">
        <walk from="-235993022#1" to="-429195620#0"/>
    </person>
    <person id="ped5" depart="38.88" type="ped_pedestrian">
        <walk from="1336852403#1" to="845083352#0"/>
    </person>
    <person id="ped6" depart="46.66" type="ped_pedestrian">
        <walk from="845163816" to="105616183#0"/>
    </person>
    <person id="ped7" depart="54.44" type="ped_pedestrian">
        <walk from="877703047" to="306452427#0"/>
    </person>
    <person id="ped8" depart="62.21" type="ped_pedestrian">
        <walk from="970116491#2" to="886584707#5"/>
    </person>
    <person id="ped9" depart="69.99" type="ped_pedestrian">
        <walk from="-628688344#0" to="970137803#1"/>
    </person>
    <person id="ped10" depart="77.77" type="ped_pedestrian">
        <walk from="1443804332#1" to="1180356341"/>
    </person>
    <person id="ped11" depart="85.54" type="ped_pedestrian">
        <walk from="1400726714#1" to="-474064704#1"/>
    </person>
    <person id="ped12" depart="93.32" type="ped_pedestrian">
        <walk from="668776635#1" to="314895561"/>
    </person>
    <person id="ped13" depart="101.10" type="ped_pedestrian">
        <walk from="-868399917#0" to="1308890801#1"/>
    </person>
    <person id="ped14" depart="108.87" type="ped_pedestrian">
        <walk from="248989816#1" to="681572635"/>
    </person>
    <person id="ped15" depart="116.65" type="ped_pedestrian">
        <walk from="1327615660#6" to="-845083393#0"/>
    </person>
    <person id="ped16" depart="124.43" type="ped_pedestrian">
        <walk from="1339251243#2" to="-429195620#0"/>
    </person>
    <person id="ped17" depart="132.20" type="ped_pedestrian">
        <walk from="1336864293" to="849005559#0"/>
    </person>
    <person id="ped18" depart="139.98" type="ped_pedestrian">
        <walk from="1232962030#0" to="1335738360"/>
    </person>
    <person id="ped19" depart="147.76" type="ped_pedestrian">
        <walk from="681098590" to="1253747490#0"/>
    </person>
    <person id="ped20" depart="155.53" type="ped_pedestrian">
        <walk from="-997309339" to="131664905#1"/>
    </person>
    <person id="ped21" depart="163.31" type="ped_pedestrian">
        <walk from="40245626" to="569042377"/>
    </person>
    <person id="ped22" depart="171.09" type="ped_pedestrian">
        <walk from="499998441#2" to="-4253497#1"/>
    </person>
    <person id="ped23" depart="178.86" type="ped_pedestrian">
        <walk from="1334583239#1" to="-997309342#1"/>
    </person>
    <person id="ped24" depart="186.64" type="ped_pedestrian">
        <walk from="329149142" to="1339477840#3"/>
    </person>
    <person id="ped25" depart="194.41" type="ped_pedestrian">
        <walk from="671964050#1" to="329305409"/>
    </person>
    <person id="ped26" depart="202.19" type="ped_pedestrian">
        <walk from="330197783#1" to="1205368718#0"/>
    </person>
    <person id="ped27" depart="209.97" type="ped_pedestrian">
        <walk from="314436317#0" to="-4253994#2"/>
    </person>
    <person id="ped28" depart="217.74" type="ped_pedestrian">
        <walk from="-687481230" to="848060329"/>
    </person>
    <person id="ped29" depart="225.52" type="ped_pedestrian">
        <walk from="1208540058#1" to="-1007519965"/>
    </person>
    <person id="ped30" depart="233.30" type="ped_pedestrian">
        <walk from="569042396" to="1232962032"/>
    </person>
    <person id="ped31" depart="241.07" type="ped_pedestrian">
        <walk from="1335738359#1" to="330197773"/>
    </person>
    <person id="ped32" depart="248.85" type="ped_pedestrian">
        <walk from="90028229#0" to="-1265033822"/>
    </person>
    <person id="ped33" depart="256.63" type="ped_pedestrian">
        <walk from="4257244#2" to="-246170014#1"/>
    </person>
    <person id="ped34" depart="264.40" type="ped_pedestrian">
        <walk from="681419343" to="1339477840#2"/>
    </person>
    <person id="ped35" depart="272.18" type="ped_pedestrian">
        <walk from="-513152407" to="1340286287#0"/>
    </person>
    <person id="ped36" depart="279.96" type="ped_pedestrian">
        <walk from="429195620#1" to="105616183#0"/>
    </person>
    <person id="ped37" depart="287.73" type="ped_pedestrian">
        <walk from="1339741754#1" to="681757483#2"/>
    </person>
    <person id="ped38" depart="295.51" type="ped_pedestrian">
        <walk from="825288064" to="594677128#1"/>
    </person>
    <person id="ped39" depart="303.29" type="ped_pedestrian">
        <walk from="1419656634" to="557814877#1"/>
    </person>
    <person id="ped40" depart="311.06" type="ped_pedestrian">
        <walk from="116933213" to="1339741759#1"/>
    </person>
    <person id="ped41" depart="318.84" type="ped_pedestrian">
        <walk from="1336852395" to="1024906203#1"/>
    </person>
    <person id="ped42" depart="326.62" type="ped_pedestrian">
        <walk from="-304558118#0" to="-4059325#2"/>
    </person>
    <person id="ped43" depart="334.39" type="ped_pedestrian">
        <walk from="970312990#2" to="1339603575"/>
    </person>
    <person id="ped44" depart="342.17" type="ped_pedestrian">
        <walk from="1336852403#0" to="435373011"/>
    </person>
    <person id="ped45" depart="349.95" type="ped_pedestrian">
        <walk from="593836742#0" to="874423625"/>
    </person>
    <person id="ped46" depart="357.72" type="ped_pedestrian">
        <walk from="875554598" to="-4253273#0"/>
    </person>
    <person id="ped47" depart="365.50" type="ped_pedestrian">
        <walk from="131664596" to="1339802965#1"/>
    </person>
    <person id="ped48" depart="373.28" type="ped_pedestrian">
        <walk from="1335748813#0" to="329148671#0"/>
    </person>
    <person id="ped49" depart="381.05" type="ped_pedestrian">
        <walk from="1309044496#1" to="874423626#1"/>
    </person>
    <person id="ped50" depart="388.83" type="ped_pedestrian">
        <walk from="1336853978#1" to="868884090"/>
    </person>
    <person id="ped51" depart="396.61" type="ped_pedestrian">
        <walk from="878165851" to="474217515#0"/>
    </person>
    <person id="ped52" depart="404.38" type="ped_pedestrian">
        <walk from="1327615660#1" to="-4253273#0"/>
    </person>
    <person id="ped53" depart="412.16" type="ped_pedestrian">
        <walk from="997309336" to="878165846"/>
    </person>
    <person id="ped54" depart="419.94" type="ped_pedestrian">
        <walk from="237209965#8" to="-4253295#1"/>
    </person>
    <person id="ped55" depart="427.71" type="ped_pedestrian">
        <walk from="680050674#0" to="1334583248#1"/>
    </person>
    <person id="ped56" depart="435.49" type="ped_pedestrian">
        <walk from="1343475544" to="970317673#1"/>
    </person>
    <person id="ped57" depart="443.27" type="ped_pedestrian">
        <walk from="877703038" to="847530486"/>
    </person>
    <person id="ped58" depart="451.04" type="ped_pedestrian">
        <walk from="-474217515#0" to="429436952#1"/>
    </person>
    <person id="ped59" depart="458.82" type="ped_pedestrian">
        <walk from="40245622#3" to="569042401#1"/>
    </person>
    <person id="ped60" depart="466.60" type="ped_pedestrian">
        <walk from="-1205368715#2" to="875554599#1"/>
    </person>
    <person id="ped61" depart="474.37" type="ped_pedestrian">
        <walk from="1205368692" to="-1007519983"/>
    </person>
    <person id="ped62" depart="482.15" type="ped_pedestrian">
        <walk from="469499253#0" to="643025284#1"/>
    </person>
    <person id="ped63" depart="489.93" type="ped_pedestrian">
        <walk from="569042407" to="-561132266#1"/>
    </person>
    <person id="ped64" depart="497.70" type="ped_pedestrian">
        <walk from="1308890821#0" to="318351412#1"/>
    </person>
    <person id="ped65" depart="505.48" type="ped_pedestrian">
        <walk from="40245622#4" to="647892783#1"/>
    </person>
    <person id="ped66" depart="513.26" type="ped_pedestrian">
        <walk from="-1205368710" to="435368927"/>
    </person>
    <person id="ped67" depart="521.03" type="ped_pedestrian">
        <walk from="1265066824#0" to="1337717319"/>
    </person>
    <person id="ped68" depart="528.81" type="ped_pedestrian">
        <walk from="131665279#3" to="405236559#2"/>
    </person>
    <person id="ped69" depart="536.58" type="ped_pedestrian">
        <walk from="1334583240#0" to="1002735993#1"/>
    </person>
    <person id="ped70" depart="544.36" type="ped_pedestrian">
        <walk from="1336853980" to="1335738351#3"/>
    </person>
    <person id="ped71" depart="552.14" type="ped_pedestrian">
        <walk from="1334585714" to="997309336"/>
    </person>
    <person id="ped72" depart="559.91" type="ped_pedestrian">
        <walk from="354041359#1" to="849005543#4"/>
    </person>
    <person id="ped73" depart="567.69" type="ped_pedestrian">
        <walk from="4253497#1" to="970347263#1"/>
    </person>
    <person id="ped74" depart="575.47" type="ped_pedestrian">
        <walk from="237263687#0" to="143822198"/>
    </person>
    <person id="ped75" depart="583.24" type="ped_pedestrian">
        <walk from="1327608132#2" to="1309044495"/>
    </person>
    <person id="ped76" depart="591.02" type="ped_pedestrian">
        <walk from="875290541" to="235993022#0"/>
    </person>
    <person id="ped77" depart="598.80" type="ped_pedestrian">
        <walk from="435368930" to="886584707#0"/>
    </person>
    <person id="ped78" depart="606.57" type="ped_pedestrian">
        <walk from="306452433#1" to="1232962010"/>
    </person>
    <person id="ped79" depart="614.35" type="ped_pedestrian">
        <walk from="569042369" to="747147375#1"/>
    </person>
    <person id="ped80" depart="622.13" type="ped_pedestrian">
        <walk from="886584708#0" to="1342223998"/>
    </person>
    <person id="ped81" depart="629.90" type="ped_pedestrian">
        <walk from="1007519986" to="505690878#1"/>
    </person>
    <person id="ped82" depart="637.68" type="ped_pedestrian">
        <walk from="726846273" to="-314436317#0"/>
    </person>
    <person id="ped83" depart="645.46" type="ped_pedestrian">
        <walk from="803099046#0" to="845083387"/>
    </person>
    <person id="ped84" depart="653.23" type="ped_pedestrian">
        <walk from="-429195620#0" to="40245631#1"/>
    </person>
    <person id="ped85" depart="661.01" type="ped_pedestrian">
        <walk from="-845083393#0" to="28509862#2"/>
    </person>
    <person id="ped86" depart="668.79" type="ped_pedestrian">
        <walk from="1024298401" to="330197773"/>
    </person>
    <person id="ped87" depart="676.56" type="ped_pedestrian">
        <walk from="1328823025#1" to="237209965#5"/>
    </person>
    <person id="ped88" depart="684.34" type="ped_pedestrian">
        <walk from="405236558#3" to="694558780#0"/>
    </person>
    <person id="ped89" depart="692.12" type="ped_pedestrian">
        <walk from="1394960097#1" to="116815569#1"/>
    </person>
    <person id="ped90" depart="699.89" type="ped_pedestrian">
        <walk from="1336857843" to="1341548986#0"/>
    </person>
    <person id="ped91" depart="707.67" type="ped_pedestrian">
        <walk from="1337717318#1" to="1253747493#1"/>
    </person>
    <person id="ped92" depart="715.45" type="ped_pedestrian">
        <walk from="970347263#1" to="1338916968"/>
    </person>
    <person id="ped93" depart="723.22" type="ped_pedestrian">
        <walk from="-1007519983" to="1309044516#0"/>
    </person>
    <person id="ped94" depart="731.00" type="ped_pedestrian">
        <walk from="681098589" to="569042421"/>
    </person>
    <person id="ped95" depart="738.78" type="ped_pedestrian">
        <walk from="1419656641" to="-343251276"/>
    </person>
    <person id="ped96" depart="746.55" type="ped_pedestrian">
        <walk from="1336864293" to="875554600"/>
    </person>
    <person id="ped97" depart="754.33" type="ped_pedestrian">
        <walk from="1063770213#1" to="-62036629"/>
    </person>
    <person id="ped98" depart="762.11" type="ped_pedestrian">
        <walk from="1370011297" to="-1253747491#0"/>
    </person>
    <person id="ped99" depart="769.88" type="ped_pedestrian">
        <walk from="875554599#0" to="845083362"/>
    </person>
    <person id="ped100" depart="777.66" type="ped_pedestrian">
        <walk from="970312993#1" to="680050679"/>
    </person>
    <person id="ped101" depart="785.44" type="ped_pedestrian">
        <walk from="681098590" to="1006407681"/>
    </person>
    <person id="ped102" depart="793.21" type="ped_pedestrian">
        <walk from="1309044488#0" to="1433209585#1"/>
    </person>
    <person id="ped103" depart="800.99" type="ped_pedestrian">
        <walk from="1253424573#2" to="845083383"/>
    </person>
    <person id="ped104" depart="808.77" type="ped_pedestrian">
        <walk from="1339802969" to="4253994#1"/>
    </person>
    <person id="ped105" depart="816.54" type="ped_pedestrian">
        <walk from="1340286289#1" to="970116494"/>
    </person>
    <person id="ped106" depart="824.32" type="ped_pedestrian">
        <walk from="1336852412#0" to="849005542#2"/>
    </person>
    <person id="ped107" depart="832.10" type="ped_pedestrian">
        <walk from="849005559#0" to="4253271#2"/>
    </person>
    <person id="ped108" depart="839.87" type="ped_pedestrian">
        <walk from="-474064704#0" to="887715773#1"/>
    </person>
    <person id="ped109" depart="847.65" type="ped_pedestrian">
        <walk from="1200989932" to="-49934803#2"/>
    </person>
    <person id="ped110" depart="855.43" type="ped_pedestrian">
        <walk from="848060324#0" to="1232962029"/>
    </person>
    <person id="ped111" depart="863.20" type="ped_pedestrian">
        <walk from="-235993022#1" to="849005549#1"/>
    </person>
    <person id="ped112" depart="870.98" type="ped_pedestrian">
        <walk from="878165849#0" to="1338916967#5"/>
    </person>
    <person id="ped113" depart="878.75" type="ped_pedestrian">
        <walk from="1339258147" to="594677130"/>
    </person>
    <person id="ped114" depart="886.53" type="ped_pedestrian">
        <walk from="593836742#1" to="1334583239#2"/>
    </person>
    <person id="ped115" depart="894.31" type="ped_pedestrian">
        <walk from="-4253273#3" to="1008133598"/>
    </person>
    <person id="ped116" depart="902.08" type="ped_pedestrian">
        <walk from="1327615660#2" to="-1240736310"/>
    </person>
    <person id="ped117" depart="909.86" type="ped_pedestrian">
        <walk from="594677130" to="1339741759#1"/>
    </person>
    <person id="ped118" depart="917.64" type="ped_pedestrian">
        <walk from="306538645#0" to="131664998#2"/>
    </person>
    <person id="ped119" depart="925.41" type="ped_pedestrian">
        <walk from="1339480506" to="557495187"/>
    </person>
    <person id="ped120" depart="933.19" type="ped_pedestrian">
        <walk from="868399909" to="845083364"/>
    </person>
    <person id="ped121" depart="940.97" type="ped_pedestrian">
        <walk from="26834301#0" to="845083394#1"/>
    </person>
    <person id="ped122" depart="948.74" type="ped_pedestrian">
        <walk from="1335738351#5" to="405236558#8"/>
    </person>
    <person id="ped123" depart="956.52" type="ped_pedestrian">
        <walk from="1334583240#0" to="868884090"/>
    </person>
    <person id="ped124" depart="964.30" type="ped_pedestrian">
        <walk from="1339802969" to="-26834300#0"/>
    </person>
    <person id="ped125" depart="972.07" type="ped_pedestrian">
        <walk from="681098589" to="116933218"/>
    </person>
    <person id="ped126" depart="979.85" type="ped_pedestrian">
        <walk from="848060319#1" to="845083362"/>
    </person>
    <person id="ped127" depart="987.63" type="ped_pedestrian">
        <walk from="857317527#1" to="-4253271#1"/>
    </person>
    <person id="ped128" depart="995.40" type="ped_pedestrian">
        <walk from="1336652465#1" to="-314895559"/>
    </person>
    <person id="ped129" depart="1003.18" type="ped_pedestrian">
        <walk from="-246170014#0" to="1342224000#1"/>
    </person>
    <person id="ped130" depart="1010.96" type="ped_pedestrian">
        <walk from="354041364#4" to="-26834299"/>
    </person>
    <person id="ped131" depart="1018.73" type="ped_pedestrian">
        <walk from="505690870" to="1339477838#1"/>
    </person>
    <person id="ped132" depart="1026.51" type="ped_pedestrian">
        <walk from="1063770213#1" to="4253264#1"/>
    </person>
    <person id="ped133" depart="1034.29" type="ped_pedestrian">
        <walk from="1342224000#0" to="1339477837#0"/>
    </person>
    <person id="ped134" depart="1042.06" type="ped_pedestrian">
        <walk from="90028621#1" to="330197776"/>
    </person>
    <person id="ped135" depart="1049.84" type="ped_pedestrian">
        <walk from="1339480497" to="314436317#2"/>
    </person>
    <person id="ped136" depart="1057.62" type="ped_pedestrian">
        <walk from="887715773#0" to="1184460095"/>
    </person>
    <person id="ped137" depart="1065.39" type="ped_pedestrian">
        <walk from="513152408" to="90028617#1"/>
    </person>
    <person id="ped138" depart="1073.17" type="ped_pedestrian">
        <walk from="491691717#2" to="-845083394#0"/>
    </person>
    <person id="ped139" depart="1080.95" type="ped_pedestrian">
        <walk from="747147373#5" to="30345817#0"/>
    </person>
    <person id="ped140" depart="1088.72" type="ped_pedestrian">
        <walk from="1253424573#1" to="557495196#4"/>
    </person>
    <person id="ped141" depart="1096.50" type="ped_pedestrian">
        <walk from="857317528#1" to="643025272#1"/>
    </person>
    <person id="ped142" depart="1104.28" type="ped_pedestrian">
        <walk from="90028623#1" to="116933243#0"/>
    </person>
    <person id="ped143" depart="1112.05" type="ped_pedestrian">
        <walk from="997309344#1" to="849005543#0"/>
    </person>
    <person id="ped144" depart="1119.83" type="ped_pedestrian">
        <walk from="1339251243#2" to="310882266"/>
    </person>
    <person id="ped145" depart="1127.61" type="ped_pedestrian">
        <walk from="845083385#1" to="671964050#2"/>
    </person>
    <person id="ped146" depart="1135.38" type="ped_pedestrian">
        <walk from="26601258#3" to="1253425342#2"/>
    </person>
    <person id="ped147" depart="1143.16" type="ped_pedestrian">
        <walk from="239242184#5" to="878165853"/>
    </person>
    <person id="ped148" depart="1150.94" type="ped_pedestrian">
        <walk from="857316346#1" to="131664596"/>
    </person>
    <person id="ped149" depart="1158.71" type="ped_pedestrian">
        <walk from="-403199895#2" to="1342203022"/>
    </person>
    <person id="ped150" depart="1166.49" type="ped_pedestrian">
        <walk from="40245624#3" to="886584707#3"/>
    </person>
    <person id="ped151" depart="1174.27" type="ped_pedestrian">
        <walk from="875554597" to="329149140"/>
    </person>
    <person id="ped152" depart="1182.04" type="ped_pedestrian">
        <walk from="1328823026#0" to="741020511#1"/>
    </person>
    <person id="ped153" depart="1189.82" type="ped_pedestrian">
        <walk from="329305399" to="-593836742#0"/>
    </person>
    <person id="ped154" depart="1197.60" type="ped_pedestrian">
        <walk from="1372161432#1" to="40245624#3"/>
    </person>
    <person id="ped155" depart="1205.37" type="ped_pedestrian">
        <walk from="1341548987#2" to="329305412#1"/>
    </person>
    <person id="ped156" depart="1213.15" type="ped_pedestrian">
        <walk from="681419350#2" to="875290548#1"/>
    </person>
    <person id="ped157" depart="1220.92" type="ped_pedestrian">
        <walk from="329305407#1" to="1062480576#1"/>
    </person>
    <person id="ped158" depart="1228.70" type="ped_pedestrian">
        <walk from="970312990#0" to="76562953#1"/>
    </person>
    <person id="ped159" depart="1236.48" type="ped_pedestrian">
        <walk from="143822198" to="248989999"/>
    </person>
    <person id="ped160" depart="1244.25" type="ped_pedestrian">
        <walk from="90247861" to="-4059325#5"/>
    </person>
    <person id="ped161" depart="1252.03" type="ped_pedestrian">
        <walk from="4253497#2" to="239242183"/>
    </person>
    <person id="ped162" depart="1259.81" type="ped_pedestrian">
        <walk from="970388082#1" to="1211000762"/>
    </person>
    <person id="ped163" depart="1267.58" type="ped_pedestrian">
        <walk from="878165846" to="1232962028"/>
    </person>
    <person id="ped164" depart="1275.36" type="ped_pedestrian">
        <walk from="1339477837#0" to="848060319#0"/>
    </person>
    <person id="ped165" depart="1283.14" type="ped_pedestrian">
        <walk from="1340286290#1" to="1253743028#0"/>
    </person>
    <person id="ped166" depart="1290.91" type="ped_pedestrian">
        <walk from="1334583248#0" to="1368854587#3"/>
    </person>
    <person id="ped167" depart="1298.69" type="ped_pedestrian">
        <walk from="-868399917#0" to="95709543#1"/>
    </person>
    <person id="ped168" depart="1306.47" type="ped_pedestrian">
        <walk from="237263688#2" to="1336864292"/>
    </person>
    <person id="ped169" depart="1314.24" type="ped_pedestrian">
        <walk from="587309222#1" to="329306352#1"/>
    </person>
    <person id="ped170" depart="1322.02" type="ped_pedestrian">
        <walk from="1328823025#1" to="970388082#0"/>
    </person>
    <person id="ped171" depart="1329.80" type="ped_pedestrian">
        <walk from="491691714#0" to="1336864291#0"/>
    </person>
    <person id="ped172" depart="1337.57" type="ped_pedestrian">
        <walk from="970388080#1" to="569042391"/>
    </person>
    <person id="ped173" depart="1345.35" type="ped_pedestrian">
        <walk from="1308890798#1" to="848060319#0"/>
    </person>
    <person id="ped174" depart="1353.13" type="ped_pedestrian">
        <walk from="26601258#2" to="1309044498#2"/>
    </person>
    <person id="ped175" depart="1360.90" type="ped_pedestrian">
        <walk from="1033684489" to="847530489"/>
    </person>
    <person id="ped176" depart="1368.68" type="ped_pedestrian">
        <walk from="116933256" to="569042373"/>
    </person>
    <person id="ped177" depart="1376.46" type="ped_pedestrian">
        <walk from="237209965#2" to="1253747489#0"/>
    </person>
    <person id="ped178" depart="1384.23" type="ped_pedestrian">
        <walk from="239242184#1" to="-1309044510#0"/>
    </person>
    <person id="ped179" depart="1392.01" type="ped_pedestrian">
        <walk from="1415958448#2" to="-1443505747"/>
    </person>
    <person id="ped180" depart="1399.79" type="ped_pedestrian">
        <walk from="1341547870#1" to="-1278349729#1"/>
    </person>
    <person id="ped181" depart="1407.56" type="ped_pedestrian">
        <walk from="845083363" to="680050675"/>
    </person>
    <person id="ped182" depart="1415.34" type="ped_pedestrian">
        <walk from="1008133598" to="90029701#2"/>
    </person>
    <person id="ped183" depart="1423.12" type="ped_pedestrian">
        <walk from="803099051" to="1232696859"/>
    </person>
    <person id="ped184" depart="1430.89" type="ped_pedestrian">
        <walk from="1418606140#1" to="343251278#0"/>
    </person>
    <person id="ped185" depart="1438.67" type="ped_pedestrian">
        <walk from="747147373#0" to="1341547875#1"/>
    </person>
    <person id="ped186" depart="1446.45" type="ped_pedestrian">
        <walk from="-485039782#1" to="1335738359#1"/>
    </person>
    <person id="ped187" depart="1454.22" type="ped_pedestrian">
        <walk from="1232962009#1" to="868442935"/>
    </person>
    <person id="ped188" depart="1462.00" type="ped_pedestrian">
        <walk from="849005549#3" to="-848060318"/>
    </person>
    <person id="ped189" depart="1469.78" type="ped_pedestrian">
        <walk from="938818959#1" to="678745731"/>
    </person>
    <person id="ped190" depart="1477.55" type="ped_pedestrian">
        <walk from="681572635" to="770889249#1"/>
    </person>
    <person id="ped191" depart="1485.33" type="ped_pedestrian">
        <walk from="845083352#0" to="877703035"/>
    </person>
    <person id="ped192" depart="1493.11" type="ped_pedestrian">
        <walk from="292728157#0" to="90028246"/>
    </person>
    <person id="ped193" depart="1500.88" type="ped_pedestrian">
        <walk from="938818959#1" to="868399917#0"/>
    </person>
    <person id="ped194" depart="1508.66" type="ped_pedestrian">
        <walk from="1335738350" to="860776045#1"/>
    </person>
    <person id="ped195" depart="1516.44" type="ped_pedestrian">
        <walk from="314436316#1" to="1341547866#1"/>
    </person>
    <person id="ped196" depart="1524.21" type="ped_pedestrian">
        <walk from="868442935" to="1024906203#1"/>
    </person>
    <person id="ped197" depart="1531.99" type="ped_pedestrian">
        <walk from="1394960110#1" to="1308890801#0"/>
    </person>
    <person id="ped198" depart="1539.77" type="ped_pedestrian">
        <walk from="868399910" to="970388084#1"/>
    </person>
    <person id="ped199" depart="1547.54" type="ped_pedestrian">
        <walk from="650112516#1" to="557814877#0"/>
    </person>
    <person id="ped200" depart="1555.32" type="ped_pedestrian">
        <walk from="40245629#2" to="1341547866#1"/>
    </person>
    <person id="ped201" depart="1563.10" type="ped_pedestrian">
        <walk from="26834301#0" to="474217519#1"/>
    </person>
    <person id="ped202" depart="1570.87" type="ped_pedestrian">
        <walk from="875290548#0" to="-997309339"/>
    </person>
    <person id="ped203" depart="1578.65" type="ped_pedestrian">
        <walk from="248989816#1" to="1007519989"/>
    </person>
    <person id="ped204" depart="1586.42" type="ped_pedestrian">
        <walk from="55567825" to="-876833209#0"/>
    </person>
    <person id="ped205" depart="1594.20" type="ped_pedestrian">
        <walk from="474064704#1" to="-474217515#0"/>
    </person>
    <person id="ped206" depart="1601.98" type="ped_pedestrian">
        <walk from="-246170014#1" to="848060325"/>
    </person>
    <person id="ped207" depart="1609.75" type="ped_pedestrian">
        <walk from="435368927" to="26834300#1"/>
    </person>
    <person id="ped208" depart="1617.53" type="ped_pedestrian">
        <walk from="970137803#0" to="40245624#3"/>
    </person>
    <person id="ped209" depart="1625.31" type="ped_pedestrian">
        <walk from="4253273#2" to="1341548986#1"/>
    </person>
    <person id="ped210" depart="1633.08" type="ped_pedestrian">
        <walk from="4253273#3" to="90028237#0"/>
    </person>
    <person id="ped211" depart="1640.86" type="ped_pedestrian">
        <walk from="668776627#2" to="726846272#3"/>
    </person>
    <person id="ped212" depart="1648.64" type="ped_pedestrian">
        <walk from="970388084#1" to="938818959#1"/>
    </person>
    <person id="ped213" depart="1656.41" type="ped_pedestrian">
        <walk from="1308890821#1" to="845083359"/>
    </person>
    <person id="ped214" depart="1664.19" type="ped_pedestrian">
        <walk from="972125351" to="4257242#0"/>
    </person>
    <person id="ped215" depart="1671.97" type="ped_pedestrian">
        <walk from="-561132266#0" to="875290540"/>
    </person>
    <person id="ped216" depart="1679.74" type="ped_pedestrian">
        <walk from="1309044496#1" to="747147373#2"/>
    </person>
    <person id="ped217" depart="1687.52" type="ped_pedestrian">
        <walk from="-593836742#1" to="306538644"/>
    </person>
    <person id="ped218" depart="1695.30" type="ped_pedestrian">
        <walk from="874423626#1" to="40245629#1"/>
    </person>
    <person id="ped219" depart="1703.07" type="ped_pedestrian">
        <walk from="1253425343#0" to="569042401#0"/>
    </person>
    <person id="ped220" depart="1710.85" type="ped_pedestrian">
        <walk from="593841486#2" to="849005549#4"/>
    </person>
    <person id="ped221" depart="1718.63" type="ped_pedestrian">