<?xml version="1.0" encoding="UTF-8"?>

<!-- generated on 2025-10-26 14:34:56.259003 by osmWebWizard.py v1_24_0+0000-b72eb3fabc8
<configuration>
    <net-file value="C:\Program Files (x86)\Eclipse\Sumo\tools\2025-10-26-14-34-38\osm.net.xml.gz"/>
    <output-trip-file value="C:\Program Files (x86)\Eclipse\Sumo\tools\2025-10-26-14-34-38\osm.bus.trips.xml"/>
    <route-file value="C:\Program Files (x86)\Eclipse\Sumo\tools\2025-10-26-14-34-38\osm.bus.rou.xml"/>
    <prefix value="bus"/>
    <trip-attributes value="departLane=&quot;best&quot;"/>
    <fringe-start-attributes value="departSpeed=&quot;max&quot;"/>
    <vehicle-class value="bus"/>
    <fringe-factor value="5"/>
    <edge-permission value="bus"/>
    <via-edge-types value="highway.motorway,highway.motorway_link,highway.trunk_link,highway.primary_link,highway.secondary_link,highway.tertiary_link"/>
    <seed value="43"/>
    <min-distance value="600.0"/>
    <min-distance.fringe value="10.0"/>
    <remove-loops value="True"/>
    <insertion-density value="4.0"/>
</configuration>
-->

<routes xmlns:xsi="http://www.w3.org/2001/XMLSchema-instance" xsi:noNamespaceSchemaLocation="http://sumo.dlr.de/xsd/routes_file.xsd">
    <vType id="bus_bus" vClass="bus"/>
    <trip id="bus0" depart="0.00" from="-1065127941" to="1100812341#1" departLane="best" type="bus_bus" departSpeed="max"/>
    <trip id="bus1" depart="37.02" from="648568130" to="587318293" departLane="best" type="bus_bus"/>
    <trip id="bus2" depart="74.04" from="49934825#1" to="303559648#1" departLane="best" type="bus_bus"/>
    <trip id="bus3" depart="111.07" from="1415942083#1" to="27188930" departLane="best" type="bus_bus"/>
    <trip id="bus4" depart="148.09" from="1059707540#0" to="-1340003587#1" departLane="best" type="bus_bus"/>
    <trip id="bus5" depart="185.11" from="-18309858#2" to="860776044#0" departLane="best" type="bus_bus"/>
    <trip id="bus6" depart="222.13" from="614306543#0" to="-825288043" departLane="best" type="bus_bus"/>
    <trip id="bus7" depart="259.15" from="4059307#3" to="-3087449#1" departLane="best" type="bus_bus"/>
    <trip id="bus8" depart="296.17" from="884555181" to="239761119" departLane="best" type="bus_bus"/>
    <trip id="bus9" depart="333.20" from="49934843#2" to="884555174#0" departLane="best" type="bus_bus"/>
    <trip id="bus10" depart="370.22" from="884555178" to="306452416#1" departLane="best" type="bus_bus"/>
    <trip id="bus11" depart="407.24" from="-1059707542#0" to="8173312" departLane="best" type="bus_bus"/>
    <trip id="bus12" depart="444.26" from="884555186" to="-316158482#1" departLane="best" type="bus_bus"/>
    <trip id="bus13" depart="481.28" from="4257235" to="996665162#1" departLane="best" type="bus_bus" departSpeed="max"/>
    <trip id="bus14" depart="518.31" from="770901750#0" to="746410875" departLane="best" type="bus_bus" departSpeed="max"/>
    <trip id="bus15" depart="555.33" from="1007519966" to="4253988#1" departLane="best" type="bus_bus"/>
    <trip id="bus16" depart="592.35" from="1265033832" to="860776043#0" departLane="best" type="bus_bus"/>
    <trip id="bus17" depart="629.37" from="4082615#1" to="62036629" departLane="best" type="bus_bus"/>
    <trip id="bus18" depart="666.39" from="-49934843#0" to="851719169" departLane="best" type="bus_bus"/>
    <trip id="bus19" depart="703.41" from="279154263" to="-675079978#0" departLane="best" type="bus_bus" departSpeed="max"/>
    <trip id="bus20" depart="740.44" from="-18309858#2" to="-1112581137#0" departLane="best" type="bus_bus"/>
    <trip id="bus21" depart="777.46" from="246170014#0" to="3087449#0" departLane="best" type="bus_bus"/>
    <trip id="bus22" depart="814.48" from="150133378#1" to="825288051" departLane="best" type="bus_bus"/>
    <trip id="bus23" depart="851.50" from="279154263" to="-675079978#2" departLane="best" type="bus_bus" departSpeed="max"/>
    <trip id="bus24" depart="888.52" from="-4059308#1" to="485039787#1" departLane="best" type="bus_bus"/>
    <trip id="bus25" depart="925.55" from="-4253994#2" to="-1062480573#0" departLane="best" type="bus_bus"/>
    <trip id="bus26" depart="962.57" from="4059327#1" to="-316158482#1" departLane="best" type="bus_bus"/>
    <trip id="bus27" depart="999.59" from="-746410872#1" to="-4059306#0" departLane="best" type="bus_bus"/>
    <trip id="bus28" depart="1036.61" from="279154263" to="4059308#1" departLane="best" type="bus_bus" departSpeed="max"/>
    <trip id="bus29" depart="1073.63" from="405404511" to="-825288054" departLane="best" type="bus_bus"/>
    <trip id="bus30" depart="1110.65" from="-541926390#3" to="837448601" departLane="best" type="bus_bus" departSpeed="max"/>
    <trip id="bus31" depart="1147.68" from="306452416#3" to="-1112581137#0" departLane="best" type="bus_bus"/>
    <trip id="bus32" depart="1184.70" from="1007519971" to="1112581136" departLane="best" type="bus_bus"/>
    <trip id="bus33" depart="1221.72" from="1051341393" to="997309342#1" departLane="best" type="bus_bus"/>
    <trip id="bus34" depart="1258.74" from="-4257237#1" to="747147372#0" departLane="best" type="bus_bus" departSpeed="max"/>
    <trip id="bus35" depart="1295.76" from="505739792" to="-49932186#1" departLane="best" type="bus_bus" departSpeed="max"/>
    <trip id="bus36" depart="1332.79" from="770901750#1" to="-675079978#0" departLane="best" type="bus_bus"/>
    <trip id="bus37" depart="1369.81" from="1232962008" to="587315169#1" departLane="best" type="bus_bus"/>
    <trip id="bus38" depart="1406.83" from="1006631257" to="-1232962008" departLane="best" type="bus_bus"/>
    <trip id="bus39" depart="1443.85" from="747155719#1" to="608995227" departLane="best" type="bus_bus"/>
    <trip id="bus40" depart="1480.87" from="1112581134" to="-18309858#1" departLane="best" type="bus_bus"/>
    <trip id="bus41" depart="1517.90" from="758462266#1" to="837448598" departLane="best" type="bus_bus"/>
    <trip id="bus42" depart="1554.92" from="3087449#1" to="-587317657#1" departLane="best" type="bus_bus"/>
    <trip id="bus43" depart="1591.94" from="-823008428" to="306452416#4" departLane="best" type="bus_bus"/>
    <trip id="bus44" depart="1628.96" from="505739792" to="311804826" departLane="best" type="bus_bus" departSpeed="max"/>
    <trip id="bus45" depart="1665.98" from="648568130" to="3241842" departLane="best" type="bus_bus"/>
    <trip id="bus46" depart="1703.00" from="1200989935#1" to="303559639#1" departLane="best" type="bus_bus"/>
    <trip id="bus47" depart="1740.03" from="-1065127941" to="561132269#0" departLane="best" type="bus_bus" departSpeed="max"/>
    <trip id="bus48" depart="1777.05" from="279154263" to="49932186#0" departLane="best" type="bus_bus" departSpeed="max"/>
    <trip id="bus49" depart="1814.07" from="3127740#0" to="-58987876#0" departLane="best" type="bus_bus"/>
    <trip id="bus50" depart="1851.09" from="-913020667" to="-311804827#1" departLane="best" type="bus_bus"/>
    <trip id="bus51" depart="1888.11" from="4059307#3" to="-49932184#0" departLane="best" type="bus_bus"/>
    <trip id="bus52" depart="1925.14" from="997309342#0" to="1006631257" departLane="best" type="bus_bus"/>
    <trip id="bus53" depart="1962.16" from="746410875" to="-851719171#0" departLane="best" type="bus_bus"/>
    <trip id="bus54" depart="1999.18" from="-825288057" to="1065127941" departLane="best" type="bus_bus"/>
    <trip id="bus55" depart="2036.20" from="-1065177554#0" to="4253996#0" departLane="best" type="bus_bus"/>
    <trip id="bus56" depart="2073.22" from="1006631257" to="26834676" departLane="best" type="bus_bus"/>
    <trip id="bus57" depart="2110.24" from="758462267#0" to="1112581137#1" departLane="best" type="bus_bus"/>
    <trip id="bus58" depart="2147.27" from="311804825#1" to="-851719171#0" departLane="best" type="bus_bus"/>
    <trip id="bus59" depart="2184.29" from="-4059308#1" to="996665163" departLane="best" type="bus_bus"/>
    <trip id="bus60" depart="2221.31" from="-694563843" to="314436317#1" departLane="best" type="bus_bus"/>
    <trip id="bus61" depart="2258.33" from="1059707545" to="236141635#1" departLane="best" type="bus_bus"/>
    <trip id="bus62" depart="2295.35" from="996665163" to="1007519966" departLane="best" type="bus_bus"/>
    <trip id="bus63" depart="2332.38" from="-306452416#0" to="837448597#1" departLane="best" type="bus_bus"/>
    <trip id="bus64" depart="2369.40" from="-825288059" to="-694562117" departLane="best" type="bus_bus"/>
    <trip id="bus65" depart="2406.42" from="1065177555" to="311804827#0" departLane="best" type="bus_bus" departSpeed="max"/>
    <trip id="bus66" depart="2443.44" from="614306542#0" to="4059325#2" departLane="best" type="bus_bus"/>
    <trip id="bus67" depart="2480.46" from="-1065127941" to="587318293" departLane="best" type="bus_bus" departSpeed="max"/>
    <trip id="bus68" depart="2517.48" from="770901750#0" to="758462267#0" departLane="best" type="bus_bus" departSpeed="max"/>
    <trip id="bus69" depart="2554.51" from="1007519966" to="4253996#1" departLane="best" type="bus_bus"/>
    <trip id="bus70" depart="2591.53" from="825288043" to="17929793#0" departLane="best" type="bus_bus"/>
    <trip id="bus71" depart="2628.55" from="-306452416#2" to="-851719169" departLane="best" type="bus_bus"/>
    <trip id="bus72" depart="2665.57" from="-996665163" to="1007519972" departLane="best" type="bus_bus"/>
    <trip id="bus73" depart="2702.59" from="-1112581137#1" to="996665163" departLane="best" type="bus_bus"/>
    <trip id="bus74" depart="2739.62" from="-541926390#1" to="-1065127939#0" departLane="best" type="bus_bus"/>
    <trip id="bus75" depart="2776.64" from="4059326#0" to="485039787#1" departLane="best" type="bus_bus"/>
    <trip id="bus76" depart="2813.66" from="1112581137#0" to="-913020667" departLane="best" type="bus_bus" departSpeed="max"/>
    <trip id="bus77" depart="2850.68" from="-996665163" to="8173099" departLane="best" type="bus_bus"/>
    <trip id="bus78" depart="2887.70" from="614306543#1" to="38444000" departLane="best" type="bus_bus"/>
    <trip id="bus79" depart="2924.72" from="-306452416#4" to="62036628" departLane="best" type="bus_bus"/>
    <trip id="bus80" depart="2961.75" from="-3087449#1" to="-8173312" departLane="best" type="bus_bus"/>
    <trip id="bus81" depart="2998.77" from="4257235" to="1340003587#0" departLane="best" type="bus_bus" departSpeed="max"/>
    <trip id="bus82" depart="3035.79" from="-306452416#4" to="-987343785#0" departLane="best" type="bus_bus"/>
    <trip id="bus83" depart="3072.81" from="4257239" to="-1112581137#0" departLane="best" type="bus_bus" departSpeed="max"/>
    <trip id="bus84" depart="3109.83" from="246170014#0" to="-316158482#1" departLane="best" type="bus_bus"/>
    <trip id="bus85" depart="3146.86" from="1112581131#1" to="747147372#0" departLane="best" type="bus_bus"/>
    <trip id="bus86" depart="3183.88" from="-558255409#1" to="694563843" departLane="best" type="bus_bus"/>
    <trip id="bus87" depart="3220.90" from="3087449#2" to="1006631258#2" departLane="best" type="bus_bus"/>
    <trip id="bus88" depart="3257.92" from="996665163" to="62036633" departLane="best" type="bus_bus"/>
    <trip id="bus89" depart="3294.94" from="-1065127941" to="24936260#0" departLane="best" type="bus_bus" departSpeed="max"/>
    <trip id="bus90" depart="3331.96" from="-1059707542#0" to="26294450#1" departLane="best" type="bus_bus"/>
    <trip id="bus91" depart="3368.99" from="17929793#0" to="1007519972" departLane="best" type="bus_bus"/>
    <trip id="bus92" depart="3406.01" from="-306452424#2" to="-587317657#1" departLane="best" type="bus_bus"/>
    <trip id="bus93" depart="3443.03" from="-3087449#0" to="589640599" departLane="best" type="bus_bus"/>
    <trip id="bus94" depart="3480.05" from="587317657#0" to="4059325#3" departLane="best" type="bus_bus" departSpeed="max"/>
    <trip id="bus95" depart="3517.07" from="-558255409#1" to="27188930" departLane="best" type="bus_bus"/>
    <trip id="bus96" depart="3554.10" from="360934008#4" to="-746410872#0" departLane="best" type="bus_bus"/>
    <trip id="bus97" depart="3591.12" from="1112581131#1" to="511545507" departLane="best" type="bus_bus"/>
</routes>
