<?xml version="1.0" encoding="UTF-8"?>

<!-- generated on 2025-11-24T17:06:49.762243+00:00 by Eclipse SUMO netedit 1.25.0
<neteditConfiguration xmlns:xsi="http://www.w3.org/2001/XMLSchema-instance" xsi:noNamespaceSchemaLocation="http://sumo.dlr.de/xsd/neteditConfiguration.xsd">

    <input>
        <sumocfg-file value="simulation.sumocfg"/>
        <additional-files value="networks/demo/detectors.add.xml"/>
        <sumo-net-file value="networks/demo/main.net.xml"/>
    </input>

    <output>
        <output-file value="networks/demo/main.net.xml"/>
    </output>

    <processing>
        <geometry.min-radius.fix.railways value="false"/>
        <geometry.avoid-overlap value="false"/>
        <geometry.max-grade.fix value="false"/>
        <offset.disable-normalization value="true"/>
        <lefthand value="1"/>
    </processing>

    <junctions>
        <no-internal-links value="false"/>
        <no-turnarounds value="true"/>
        <junctions.corner-detail value="5"/>
        <junctions.limit-turn-speed value="5.50"/>
        <rectangular-lane-cut value="0"/>
    </junctions>

    <pedestrian>
        <walkingareas value="0"/>
    </pedestrian>

    <netedit>
        <ignore.routeelements value="false"/>
    </netedit>

</neteditConfiguration>
-->

<net version="1.20" junctionCornerDetail="5" lefthand="true" limitTurnSpeed="5.50" avoidOverlap="0" xmlns:xsi="http://www.w3.org/2001/XMLSchema-instance" xsi:noNamespaceSchemaLocation="http://sumo.dlr.de/xsd/net_file.xsd">

    <location netOffset="0.00,0.00" convBoundary="-70.41,-330.85,234.64,12.56" origBoundary="-10000000000.00,-10000000000.00,10000000000.00,10000000000.00" projParameter="!"/>

    <edge id=":CJ_1_0" function="internal">
        <lane id=":CJ_1_0_0" index="0" allow="bicycle" speed="6.50" length="5.27" width="1.00" shape="37.69,-234.16 35.88,-232.08 33.91,-231.03 33.64,-231.02"/>
    </edge>
    <edge id=":CJ_1_1" function="internal">
        <lane id=":CJ_1_1_0" index="0" allow="bicycle" speed="13.89" length="19.35" width="1.00" shape="37.69,-234.16 26.41,-218.45"/>
    </edge>
    <edge id=":CJ_1_2" function="internal">
        <lane id=":CJ_1_2_0" index="0" allow="bicycle" speed="9.39" length="9.14" width="1.00" shape="37.69,-234.16 36.04,-229.39 36.27,-225.30"/>
    </edge>
    <edge id=":CJ_1_3" function="internal">
        <lane id=":CJ_1_3_0" index="0" disallow="pedestrian" speed="8.23" length="10.44" width="5.00" shape="39.77,-232.77 36.93,-229.43 33.94,-227.66 31.37,-227.50"/>
    </edge>
    <edge id=":CJ_1_4" function="internal">
        <lane id=":CJ_1_4_0" index="0" disallow="pedestrian" speed="13.89" length="19.35" width="4.00" shape="39.77,-232.77 28.48,-217.05"/>
    </edge>
    <edge id=":CJ_1_5" function="internal">
        <lane id=":CJ_1_5_0" index="0" disallow="pedestrian" speed="8.52" length="4.27" width="5.00" shape="39.77,-232.77 38.63,-229.12 38.69,-228.68"/>
    </edge>
    <edge id=":CJ_1_20" function="internal">
        <lane id=":CJ_1_20_0" index="0" allow="bicycle" speed="6.50" length="4.34" width="1.00" shape="33.64,-231.02 31.79,-231.00 29.51,-232.00"/>
    </edge>
    <edge id=":CJ_1_21" function="internal">
        <lane id=":CJ_1_21_0" index="0" allow="bicycle" speed="9.39" length="11.98" width="1.00" shape="36.27,-225.30 36.35,-223.90 38.37,-218.78 41.85,-215.10"/>
    </edge>
    <edge id=":CJ_1_22" function="internal">
        <lane id=":CJ_1_22_0" index="0" disallow="pedestrian" speed="8.23" length="4.17" width="5.00" shape="31.37,-227.50 30.79,-227.46 27.48,-228.85"/>
    </edge>
    <edge id=":CJ_1_23" function="internal">
        <lane id=":CJ_1_23_0" index="0" disallow="pedestrian" speed="8.52" length="12.03" width="5.00" shape="38.69,-228.68 39.17,-224.96 41.02,-221.08 43.85,-218.28"/>
    </edge>
    <edge id=":CJ_1_6" function="internal">
        <lane id=":CJ_1_6_0" index="0" allow="bicycle" speed="6.28" length="4.62" width="1.00" shape="45.78,-221.50 44.23,-222.92 43.61,-224.67 43.71,-225.32"/>
    </edge>
    <edge id=":CJ_1_7" function="internal">
        <lane id=":CJ_1_7_0" index="0" allow="bicycle" speed="13.89" length="19.36" width="2.50" shape="45.78,-221.50 29.51,-232.00"/>
    </edge>
    <edge id=":CJ_1_8" function="internal">
        <lane id=":CJ_1_8_0" index="0" allow="bicycle" speed="9.96" length="12.13" width="1.00" shape="45.78,-221.50 40.00,-224.16 34.84,-224.54 34.30,-224.31"/>
    </edge>
    <edge id=":CJ_1_9" function="internal">
        <lane id=":CJ_1_9_0" index="0" allow="bicycle" speed="4.17" length="3.66" width="2.50" shape="45.78,-221.50 43.52,-221.41 42.34,-220.66"/>
    </edge>
    <edge id=":CJ_1_24" function="internal">
        <lane id=":CJ_1_24_0" index="0" allow="bicycle" speed="6.28" length="4.15" width="1.00" shape="43.71,-225.32 43.93,-226.75 45.18,-229.15"/>
    </edge>
    <edge id=":CJ_1_25" function="internal">
        <lane id=":CJ_1_25_0" index="0" allow="bicycle" speed="9.96" length="10.05" width="1.00" shape="34.30,-224.31 30.31,-222.64 26.41,-218.45"/>
    </edge>
    <edge id=":CJ_1_26" function="internal">
        <lane id=":CJ_1_26_0" index="0" allow="bicycle" speed="4.17" length="3.66" width="2.50" shape="42.34,-220.66 42.22,-219.26 43.18,-217.22"/>
    </edge>
    <edge id=":CJ_1_10" function="internal">
        <lane id=":CJ_1_10_0" index="0" allow="bicycle" speed="6.40" length="4.93" width="1.00" shape="33.91,-213.42 35.59,-215.28 37.47,-216.18 37.80,-216.17"/>
    </edge>
    <edge id=":CJ_1_11" function="internal">
        <lane id=":CJ_1_11_0" index="0" allow="bicycle" speed="13.89" length="19.35" width="1.00" shape="33.91,-213.42 45.18,-229.15"/>
    </edge>
    <edge id=":CJ_1_12" function="internal">
        <lane id=":CJ_1_12_0" index="0" allow="bicycle" speed="9.32" length="8.91" width="1.00" shape="33.91,-213.42 35.47,-218.07 35.16,-222.06"/>
    </edge>
    <edge id=":CJ_1_13" function="internal">
        <lane id=":CJ_1_13_0" index="0" disallow="pedestrian" speed="8.15" length="9.95" width="5.00" shape="31.84,-214.82 34.54,-217.93 37.44,-219.55 39.94,-219.64"/>
    </edge>
    <edge id=":CJ_1_14" function="internal">
        <lane id=":CJ_1_14_0" index="0" disallow="pedestrian" speed="13.89" length="19.35" width="4.00" shape="31.84,-214.82 43.10,-230.54"/>
    </edge>
    <edge id=":CJ_1_15" function="internal">
        <lane id=":CJ_1_15_0" index="0" disallow="pedestrian" speed="8.43" length="4.07" width="5.00" shape="31.84,-214.82 32.85,-218.29 32.77,-218.74"/>
    </edge>
    <edge id=":CJ_1_27" function="internal">
        <lane id=":CJ_1_27_0" index="0" allow="bicycle" speed="6.40" length="4.27" width="1.00" shape="37.80,-216.17 39.56,-216.12 41.85,-215.10"/>
    </edge>
    <edge id=":CJ_1_28" function="internal">
        <lane id=":CJ_1_28_0" index="0" allow="bicycle" speed="9.32" length="11.75" width="1.00" shape="35.16,-222.06 35.05,-223.40 32.96,-228.39 29.51,-232.00"/>
    </edge>
    <edge id=":CJ_1_29" function="internal">
        <lane id=":CJ_1_29_0" index="0" disallow="pedestrian" speed="8.15" length="4.18" width="5.00" shape="39.94,-219.64 40.54,-219.66 43.85,-218.28"/>
    </edge>
    <edge id=":CJ_1_30" function="internal">
        <lane id=":CJ_1_30_0" index="0" disallow="pedestrian" speed="8.43" length="11.78" width="5.00" shape="32.77,-218.74 32.19,-222.31 30.27,-226.09 27.48,-228.85"/>
    </edge>
    <edge id=":CJ_1_16" function="internal">
        <lane id=":CJ_1_16_0" index="0" allow="bicycle" speed="6.16" length="4.16" width="1.00" shape="25.46,-225.70 27.05,-224.27 27.74,-222.59 27.72,-222.39"/>
    </edge>
    <edge id=":CJ_1_17" function="internal">
        <lane id=":CJ_1_17_0" index="0" allow="bicycle" speed="13.89" length="19.52" width="2.50" shape="25.46,-225.70 41.85,-215.10"/>
    </edge>
    <edge id=":CJ_1_18" function="internal">
        <lane id=":CJ_1_18_0" index="0" allow="bicycle" speed="10.02" length="12.13" width="1.00" shape="25.46,-225.70 31.27,-223.00 36.49,-222.67 36.94,-222.87"/>
    </edge>
    <edge id=":CJ_1_19" function="internal">
        <lane id=":CJ_1_19_0" index="0" allow="bicycle" speed="4.17" length="3.64" width="2.50" shape="25.46,-225.70 27.71,-225.74 28.91,-226.45"/>
    </edge>
    <edge id=":CJ_1_31" function="internal">
        <lane id=":CJ_1_31_0" index="0" allow="bicycle" speed="6.16" length="4.22" width="1.00" shape="27.72,-222.39 27.52,-220.64 26.41,-218.45"/>
    </edge>
    <edge id=":CJ_1_32" function="internal">
        <lane id=":CJ_1_32_0" index="0" allow="bicycle" speed="10.02" length="10.59" width="1.00" shape="36.94,-222.87 41.13,-224.72 45.18,-229.15"/>
    </edge>
    <edge id=":CJ_1_33" function="internal">
        <lane id=":CJ_1_33_0" index="0" allow="bicycle" speed="4.17" length="3.64" width="2.50" shape="28.91,-226.45 29.06,-227.84 28.16,-229.90"/>
    </edge>
    <edge id=":CJ_1_c0" function="crossing" crossingEdges="GowSt_1_2 GowSt_2_1">
        <lane id=":CJ_1_c0_0" index="0" allow="pedestrian" speed="2.78" length="10.01" width="4.00" shape="44.48,-227.21 36.17,-232.78" outlineShape="45.60,228.88 37.28,234.44 36.31,233.25 35.26,232.44 34.12,232.01 33.73,232.00 44.61,224.72 44.44,225.26 44.48,226.36 44.86,227.57"/>
    </edge>
    <edge id=":CJ_1_c1" function="crossing" crossingEdges="TorPl_1_4 TorPl_2_1">
        <lane id=":CJ_1_c1_0" index="0" allow="pedestrian" speed="2.78" length="10.01" width="4.00" shape="39.49,-215.10 44.75,-223.62" outlineShape="41.20,214.05 46.45,222.57 45.43,223.36 44.76,224.26 44.44,225.26 44.48,226.36 43.04,224.67 37.79,216.15 37.19,215.17 38.47,215.17 39.78,214.78"/>
    </edge>
    <edge id=":CJ_1_c2" function="crossing" crossingEdges="GowSt_2_2 GowSt_1_1">
        <lane id=":CJ_1_c2_0" index="0" allow="pedestrian" speed="2.78" length="10.03" width="4.00" shape="27.11,-220.39 35.44,-214.80" outlineShape="26.00,218.73 34.33,213.14 35.20,214.18 36.18,214.87 37.27,215.20 38.47,215.17 26.15,223.44 26.54,222.96 26.91,222.01 26.94,220.99 26.64,219.89"/>
    </edge>
    <edge id=":CJ_1_c3" function="crossing" crossingEdges="TorPl_2_2 TorPl_1_3">
        <lane id=":CJ_1_c3_0" index="0" allow="pedestrian" speed="2.78" length="9.98" width="4.00" shape="31.87,-231.97 26.47,-223.57" outlineShape="30.19,233.05 24.79,224.65 25.83,223.84 26.54,222.96 26.91,222.01 26.94,220.99 26.75,220.30 34.32,232.09 34.12,232.01 32.89,231.98 31.58,232.32"/>
    </edge>
    <edge id=":CJ_1_w0" function="walkingarea">
        <lane id=":CJ_1_w0_0" index="0" allow="pedestrian" speed="2.78" length="4.29" width="4.00" shape="30.19,-233.05 31.27,-234.74 35.62,-235.55 37.28,-234.44 36.31,-233.25 35.26,-232.44 34.12,-232.01 32.89,-231.98 31.58,-232.32"/>
    </edge>
    <edge id=":CJ_1_w1" function="walkingarea">
        <lane id=":CJ_1_w1_0" index="0" allow="pedestrian" speed="2.78" length="3.76" width="4.00" shape="45.60,-228.88 47.26,-227.76 47.50,-224.26 46.44,-222.56 45.43,-223.36 44.76,-224.26 44.44,-225.26 44.48,-226.36 44.86,-227.57"/>
    </edge>
    <edge id=":CJ_1_w2" function="walkingarea">
        <lane id=":CJ_1_w2_0" index="0" allow="pedestrian" speed="2.78" length="4.09" width="4.00" shape="41.19,-214.04 40.13,-212.35 35.98,-212.03 34.32,-213.14 35.20,-214.18 36.18,-214.87 37.27,-215.20 38.47,-215.17 39.78,-214.78"/>
    </edge>
    <edge id=":CJ_1_w3" function="walkingarea">
        <lane id=":CJ_1_w3_0" index="0" allow="pedestrian" speed="2.78" length="3.55" width="4.00" shape="26.00,-218.73 24.34,-219.84 23.71,-222.97 24.78,-224.65 25.83,-223.84 26.54,-222.96 26.91,-222.01 26.94,-220.99 26.64,-219.89"/>
    </edge>
    <edge id=":CJ_2_0" function="internal">
        <lane id=":CJ_2_0_0" index="0" allow="bicycle" speed="6.26" length="7.77" width="2.50" shape="98.87,-193.81 97.47,-192.30 95.88,-191.60 94.09,-191.69 92.10,-192.59"/>
    </edge>
    <edge id=":CJ_2_1" function="internal">
        <lane id=":CJ_2_1_0" index="0" disallow="pedestrian" speed="7.55" length="12.58" width="5.00" shape="99.49,-193.39 97.65,-189.93 97.15,-186.95 97.99,-184.44 100.18,-182.40"/>
    </edge>
    <edge id=":CJ_2_2" function="internal">
        <lane id=":CJ_2_2_0" index="0" allow="bicycle" speed="5.77" length="7.29" width="1.00" shape="102.23,-185.64 100.88,-186.86 100.32,-188.33 100.55,-190.03 101.56,-191.97"/>
    </edge>
    <edge id=":CJ_2_3" function="internal">
        <lane id=":CJ_2_3_0" index="0" allow="bicycle" speed="13.89" length="12.28" width="2.50" shape="102.23,-185.64 92.10,-192.59"/>
    </edge>
    <edge id=":CJ_2_4" function="internal">
        <lane id=":CJ_2_4_0" index="0" allow="bicycle" speed="4.20" length="7.43" width="2.50" shape="102.23,-185.64 99.93,-185.59 98.72,-184.85 98.58,-183.44 99.51,-181.34"/>
    </edge>
    <edge id=":CJ_2_5" function="internal">
        <lane id=":CJ_2_5_0" index="0" allow="bicycle" speed="13.89" length="12.24" width="2.50" shape="88.06,-186.12 98.18,-179.23"/>
    </edge>
    <edge id=":CJ_2_6" function="internal">
        <lane id=":CJ_2_6_0" index="0" allow="bicycle" speed="8.64" length="7.72" width="1.00" shape="88.06,-186.12 91.40,-184.92 94.77,-185.50 95.39,-185.93"/>
    </edge>
    <edge id=":CJ_2_7" function="internal">
        <lane id=":CJ_2_7_0" index="0" disallow="pedestrian" speed="13.89" length="12.26" width="5.00" shape="90.05,-189.30 100.18,-182.40"/>
    </edge>
    <edge id=":CJ_2_8" function="internal">
        <lane id=":CJ_2_8_0" index="0" allow="bicycle" speed="8.64" length="8.72" width="1.00" shape="95.39,-185.93 98.15,-187.85 101.56,-191.97"/>
    </edge>
    <edge id=":CJ_2_c0" function="crossing" crossingEdges="MalSt_1_1 MalSt_2_1">
        <lane id=":CJ_2_c0_0" index="0" allow="pedestrian" speed="2.78" length="5.01" width="4.00" shape="100.85,-190.04 96.71,-192.86" outlineShape="101.98,191.69 97.84,194.51 97.16,193.70 96.42,193.16 95.60,192.89 94.72,192.87 94.12,193.04 95.58,191.21 99.72,188.38 101.83,187.62 101.45,188.10 101.16,188.90 101.14,189.77 101.42,190.69"/>
    </edge>
    <edge id=":CJ_2_c1" function="crossing" crossingEdges="BynPl_1_1 BynPl_2_3">
        <lane id=":CJ_2_c1_0" index="0" allow="pedestrian" speed="2.78" length="10.09" width="4.00" shape="95.82,-179.24 101.21,-187.77" outlineShape="97.51,178.17 102.90,186.70 102.95,186.79 102.89,186.70 102.03,187.37 101.45,188.10 101.16,188.90 101.14,189.77 101.31,190.31 99.51,188.84 94.13,180.31"/>
    </edge>
    <edge id=":CJ_2_w0" function="walkingarea">
        <lane id=":CJ_2_w0_0" index="0" allow="pedestrian" speed="2.78" length="3.26" width="4.00" shape="92.76,-193.65 93.82,-195.35 96.18,-195.64 97.84,-194.51 97.16,-193.70 96.42,-193.16 95.60,-192.89 94.72,-192.87 93.78,-193.13"/>
    </edge>
    <edge id=":CJ_2_w1" function="walkingarea">
        <lane id=":CJ_2_w1_0" index="0" allow="pedestrian" speed="2.78" length="2.95" width="4.00" shape="101.98,-191.69 103.63,-190.56 103.96,-188.39 102.89,-186.70 102.03,-187.37 101.45,-188.10 101.16,-188.90 101.14,-189.77 101.42,-190.69"/>
    </edge>
    <edge id=":CJ_2_w2" function="walkingarea">
        <lane id=":CJ_2_w2_0" index="0" allow="pedestrian" speed="2.78" length="6.92" width="4.00" shape="94.13,-180.31 97.51,-178.17 96.44,-176.48 89.95,-178.80 88.29,-179.92 86.60,-181.05 86.34,-183.37 87.40,-185.06"/>
    </edge>
    <edge id=":CJ_3_0" function="internal">
        <lane id=":CJ_3_0_0" index="0" allow="bicycle" speed="13.89" length="4.50" width="2.50" shape="142.51,-157.32 141.96,-158.53 141.53,-159.35 140.98,-160.08 140.06,-161.04"/>
    </edge>
    <edge id=":CJ_3_1" function="internal">
        <lane id=":CJ_3_1_0" index="0" allow="bicycle" speed="9.86" length="2.29" width="2.50" shape="134.69,-155.55 135.02,-155.22 135.24,-154.98 135.41,-154.72 135.61,-154.30"/>
        <lane id=":CJ_3_1_1" index="1" disallow="pedestrian" speed="13.66" length="2.29" width="5.00" shape="137.31,-158.23 137.94,-157.59 138.35,-157.13 138.67,-156.61 139.05,-155.80"/>
    </edge>
    <edge id=":CJ_3_c0" function="crossing" crossingEdges="BynPl_1_2 BynPl_2_2">
        <lane id=":CJ_3_c0_0" index="0" allow="pedestrian" speed="2.78" length="9.99" width="4.00" shape="133.67,-155.63 142.80,-159.66" outlineShape="134.38,153.76 143.70,157.87 143.49,162.15 143.78,161.83 144.22,161.22 144.58,160.57 144.97,159.75 145.48,158.64 143.66,157.80 142.00,161.49 132.86,157.46 133.39,154.20 133.83,154.63 133.96,154.51 134.09,154.39 134.19,154.28 134.28,154.16 134.37,154.01"/>
    </edge>
    <edge id=":CJ_3_w0" function="walkingarea">
        <lane id=":CJ_3_w0_0" index="0" allow="pedestrian" speed="2.78" length="3.60" width="4.00" shape="140.93,-161.93 142.33,-163.36 143.19,-162.50 143.78,-161.83 144.22,-161.22 144.58,-160.57 144.97,-159.75 145.48,-158.64 143.66,-157.80 143.21,-158.80 142.87,-159.51 142.56,-160.08 142.19,-160.60 141.67,-161.19"/>
    </edge>
    <edge id=":CJ_3_w1" function="walkingarea">
        <lane id=":CJ_3_w1_0" index="0" allow="pedestrian" speed="2.78" length="1.57" width="4.00" shape="134.47,-153.80 132.64,-152.99 132.39,-153.25 133.83,-154.63 133.96,-154.51 134.09,-154.39 134.19,-154.28 134.28,-154.16 134.37,-154.01"/>
    </edge>
    <edge id=":CJ_4_0" function="internal">
        <lane id=":CJ_4_0_0" index="0" allow="bicycle" speed="13.89" length="3.92" width="2.50" shape="158.20,-118.76 155.18,-121.27"/>
    </edge>
    <edge id=":CJ_4_1" function="internal">
        <lane id=":CJ_4_1_0" index="0" allow="bicycle" speed="13.89" length="4.19" width="2.50" shape="150.43,-115.12 153.84,-112.53"/>
        <lane id=":CJ_4_1_1" index="1" disallow="pedestrian" speed="13.89" length="4.19" width="5.00" shape="152.72,-118.09 155.99,-115.60"/>
    </edge>
    <edge id=":CJ_4_c0" function="crossing" crossingEdges="BynPl_1_3 BynPl_2_1">
        <lane id=":CJ_4_c0_0" index="0" allow="pedestrian" speed="2.78" length="10.15" width="4.00" shape="151.48,-112.65 157.32,-120.95" outlineShape="153.12,111.50 158.96,119.80 156.99,123.62 157.17,123.84 160.08,121.41 158.98,119.91 155.69,122.10 149.85,113.80 153.12,111.51 151.97,109.87 148.78,112.29"/>
    </edge>
    <edge id=":CJ_4_w0" function="walkingarea">
        <lane id=":CJ_4_w0_0" index="0" allow="pedestrian" speed="2.78" length="2.75" width="4.00" shape="155.95,-122.26 157.17,-123.84 160.08,-121.41 158.90,-119.80 155.69,-122.10"/>
    </edge>
    <edge id=":CJ_4_w1" function="walkingarea">
        <lane id=":CJ_4_w1_0" index="0" allow="pedestrian" speed="2.78" length="3.05" width="4.00" shape="149.85,-113.80 153.12,-111.51 151.97,-109.87 148.45,-112.53 149.64,-114.14"/>
    </edge>
    <edge id=":CJ_5_0" function="internal">
        <lane id=":CJ_5_0_0" index="0" allow="bicycle" speed="13.89" length="14.59" width="2.50" shape="174.62,-107.95 162.30,-115.77"/>
    </edge>
    <edge id=":CJ_5_1" function="internal">
        <lane id=":CJ_5_1_0" index="0" allow="bicycle" speed="9.03" length="18.51" width="2.50" shape="174.62,-107.95 170.48,-109.78 166.50,-109.59 162.68,-107.38 159.03,-103.15"/>
    </edge>
    <edge id=":CJ_5_2" function="internal">
        <lane id=":CJ_5_2_0" index="0" allow="bicycle" speed="4.21" length="7.47" width="2.50" shape="174.62,-107.95 172.31,-107.96 171.06,-107.26 170.88,-105.84 171.76,-103.71"/>
    </edge>
    <edge id=":CJ_5_3" function="internal">
        <lane id=":CJ_5_3_0" index="0" allow="bicycle" speed="6.24" length="7.91" width="2.50" shape="163.58,-100.09 165.08,-101.76 166.71,-102.57 168.47,-102.53 170.36,-101.63"/>
        <lane id=":CJ_5_3_1" index="1" disallow="pedestrian" speed="7.39" length="11.65" width="5.00" shape="162.96,-100.51 165.42,-103.51 167.82,-105.21 170.17,-105.62 172.46,-104.74"/>
    </edge>
    <edge id=":CJ_5_5" function="internal">
        <lane id=":CJ_5_5_0" index="0" allow="bicycle" speed="8.79" length="16.66" width="2.50" shape="162.34,-100.94 164.87,-105.57 165.70,-109.59 164.85,-112.99 162.30,-115.77"/>
    </edge>
    <edge id=":CJ_5_6" function="internal">
        <lane id=":CJ_5_6_0" index="0" allow="bicycle" speed="5.96" length="2.91" width="2.50" shape="157.87,-109.70 159.37,-108.29 159.72,-107.52"/>
    </edge>
    <edge id=":CJ_5_7" function="internal">
        <lane id=":CJ_5_7_0" index="0" allow="bicycle" speed="13.89" length="14.87" width="2.50" shape="157.87,-109.70 170.36,-101.63"/>
    </edge>
    <edge id=":CJ_5_8" function="internal">
        <lane id=":CJ_5_8_0" index="0" disallow="pedestrian" speed="7.38" length="1.45" width="4.00" shape="160.08,-112.73 161.06,-111.66"/>
    </edge>
    <edge id=":CJ_5_9" function="internal">
        <lane id=":CJ_5_9_0" index="0" disallow="pedestrian" speed="13.89" length="14.73" width="5.00" shape="160.08,-112.73 172.46,-104.74"/>
    </edge>
    <edge id=":CJ_5_10" function="internal">
        <lane id=":CJ_5_10_0" index="0" allow="bicycle" speed="3.73" length="3.66" width="2.50" shape="160.80,-113.76 161.93,-113.70 162.56,-114.01 162.68,-114.71 162.30,-115.77"/>
    </edge>
    <edge id=":CJ_5_11" function="internal">
        <lane id=":CJ_5_11_0" index="0" allow="bicycle" speed="5.96" length="4.66" width="2.50" shape="159.72,-107.52 160.06,-106.73 159.95,-105.02 159.03,-103.15"/>
    </edge>
    <edge id=":CJ_5_12" function="internal">
        <lane id=":CJ_5_12_0" index="0" disallow="pedestrian" speed="7.38" length="9.77" width="4.00" shape="161.06,-111.66 161.68,-110.97 162.14,-108.72 161.46,-105.97 159.65,-102.73"/>
    </edge>
    <edge id=":CJ_5_c0" function="crossing" crossingEdges="GorSq_2_3 GorSq_1_1">
        <lane id=":CJ_5_c0_0" index="0" allow="pedestrian" speed="2.78" length="7.99" width="4.00" shape="159.12,-105.51 165.74,-101.04" outlineShape="158.00,103.85 164.62,99.38 165.35,100.30 166.13,100.92 166.95,101.27 167.82,101.33 168.42,101.18 166.86,102.70 160.24,107.16 158.04,107.89 158.49,107.27 158.76,106.49 158.77,105.67 158.51,104.78"/>
    </edge>
    <edge id=":CJ_5_w0" function="walkingarea">
        <lane id=":CJ_5_w0_0" index="0" allow="pedestrian" speed="2.78" length="14.50" width="2.00" shape="163.04,-116.78 164.22,-118.40 176.43,-110.65 175.31,-108.99"/>
    </edge>
    <edge id=":CJ_5_w1" function="walkingarea">
        <lane id=":CJ_5_w1_0" index="0" allow="pedestrian" speed="2.78" length="3.20" width="4.00" shape="169.66,-100.60 168.55,-98.94 166.27,-98.26 164.62,-99.39 165.35,-100.30 166.13,-100.92 166.95,-101.27 167.82,-101.33 168.72,-101.10"/>
    </edge>
    <edge id=":CJ_5_w2" function="walkingarea">
        <lane id=":CJ_5_w2_0" index="0" allow="pedestrian" speed="2.78" length="3.09" width="4.00" shape="157.99,-103.85 156.34,-104.98 155.97,-107.07 157.12,-108.71 157.96,-108.00 158.49,-107.27 158.76,-106.49 158.77,-105.67 158.51,-104.78"/>
    </edge>
    <edge id=":CJ_6_0" function="internal">
        <lane id=":CJ_6_0_0" index="0" allow="bicycle" speed="13.89" length="4.26" width="2.50" shape="209.64,-84.18 206.19,-86.68"/>
    </edge>
    <edge id=":CJ_6_1" function="internal">
        <lane id=":CJ_6_1_0" index="0" allow="bicycle" speed="13.89" length="4.29" width="2.50" shape="201.94,-80.37 205.46,-77.90"/>
        <lane id=":CJ_6_1_1" index="1" disallow="pedestrian" speed="13.89" length="4.29" width="5.00" shape="204.04,-83.48 207.54,-81.02"/>
    </edge>
    <edge id=":CJ_6_c0" function="crossing" crossingEdges="GorSq_1_3 GorSq_2_1">
        <lane id=":CJ_6_c0_0" index="0" allow="pedestrian" speed="2.78" length="10.04" width="4.00" shape="203.10,-77.97 208.67,-86.33" outlineShape="204.77,76.86 210.34,85.22 210.39,85.31 210.33,85.22 207.01,87.44 201.44,79.08 204.77,76.86 203.66,75.20 200.13,77.67 201.24,79.33 201.44,79.08"/>
    </edge>
    <edge id=":CJ_6_w0" function="walkingarea">
        <lane id=":CJ_6_w0_0" index="0" allow="pedestrian" speed="2.78" length="3.00" width="4.00" shape="206.89,-87.72 208.01,-89.38 211.44,-86.88 210.33,-85.22 207.01,-87.44"/>
    </edge>
    <edge id=":CJ_6_w1" function="walkingarea">
        <lane id=":CJ_6_w1_0" index="0" allow="pedestrian" speed="2.78" length="3.01" width="4.00" shape="201.44,-79.08 204.77,-76.86 203.66,-75.20 200.13,-77.67 201.24,-79.33"/>
    </edge>
    <edge id=":CJ_7_0" function="internal">
        <lane id=":CJ_7_0_0" index="0" allow="bicycle" speed="6.14" length="7.75" width="2.50" shape="-2.41,-258.31 -3.86,-256.72 -5.46,-255.94 -7.20,-255.98 -9.09,-256.84"/>
        <lane id=":CJ_7_0_1" index="1" disallow="pedestrian" speed="7.23" length="11.15" width="5.00" shape="-2.13,-258.12 -4.52,-255.18 -6.81,-253.46 -9.02,-252.96 -11.13,-253.69"/>
    </edge>
    <edge id=":CJ_7_2" function="internal">
        <lane id=":CJ_7_2_0" index="0" allow="bicycle" speed="8.01" length="14.57" width="2.50" shape="-1.84,-257.92 -4.65,-253.25 -6.04,-249.53 -6.01,-246.74 -4.55,-244.88"/>
    </edge>
    <edge id=":CJ_7_3" function="internal">
        <lane id=":CJ_7_3_0" index="0" allow="bicycle" speed="13.89" length="10.27" width="2.50" shape="-0.47,-251.28 -9.09,-256.84"/>
        <lane id=":CJ_7_3_1" index="1" disallow="pedestrian" speed="13.89" length="10.27" width="5.00" shape="-2.48,-248.12 -11.13,-253.69"/>
    </edge>
    <edge id=":CJ_7_5" function="internal">
        <lane id=":CJ_7_5_0" index="0" allow="bicycle" speed="6.22" length="7.99" width="2.50" shape="-11.43,-243.30 -9.93,-244.96 -8.29,-245.78 -6.50,-245.75 -4.55,-244.88"/>
    </edge>
    <edge id=":CJ_7_6" function="internal">
        <lane id=":CJ_7_6_0" index="0" disallow="pedestrian" speed="7.20" length="11.47" width="5.00" shape="-11.72,-243.50 -9.81,-246.89 -9.07,-249.72 -9.51,-251.98 -11.13,-253.69"/>
    </edge>
    <edge id=":CJ_7_7" function="internal">
        <lane id=":CJ_7_7_0" index="0" allow="bicycle" speed="13.89" length="10.30" width="2.50" shape="-13.22,-250.45 -4.55,-244.88"/>
    </edge>
    <edge id=":CJ_7_c0" function="crossing" crossingEdges="RidGa_2_1">
        <lane id=":CJ_7_c0_0" index="0" allow="pedestrian" speed="2.78" length="3.20" width="4.00" shape="-1.94,-255.56 -4.58,-257.37" outlineShape="-0.81,257.21 -3.45,259.02 -3.53,259.08 -3.45,259.02 -4.16,258.15 -4.92,257.56 -5.72,257.23 -6.57,257.18 -7.24,257.34 -5.71,255.72 -3.07,253.91 -0.85,253.24 -1.25,253.74 -1.56,254.52 -1.59,255.36 -1.34,256.26"/>
    </edge>
    <edge id=":CJ_7_c1" function="crossing" crossingEdges="CheMe_1_1">
        <lane id=":CJ_7_c1_0" index="0" allow="pedestrian" speed="2.78" length="3.20" width="4.00" shape="-11.91,-246.05 -9.27,-244.25" outlineShape="-13.04,244.40 -10.39,242.60 -9.65,243.51 -8.86,244.14 -8.03,244.49 -7.14,244.55 -6.57,244.42 -8.14,245.90 -10.79,247.70 -12.88,248.50 -12.49,247.99 -12.20,247.19 -12.20,246.32 -12.48,245.39"/>
    </edge>
    <edge id=":CJ_7_w0" function="walkingarea">
        <lane id=":CJ_7_w0_0" index="0" allow="pedestrian" speed="2.78" length="3.16" width="4.00" shape="-8.41,-257.89 -7.33,-259.57 -5.10,-260.15 -3.45,-259.02 -4.16,-258.15 -4.92,-257.56 -5.72,-257.23 -6.57,-257.18 -7.47,-257.40"/>
    </edge>
    <edge id=":CJ_7_w1" function="walkingarea">
        <lane id=":CJ_7_w1_0" index="0" allow="pedestrian" speed="2.78" length="3.12" width="4.00" shape="-0.78,-257.19 0.87,-256.06 1.29,-254.01 0.21,-252.33 -0.66,-253.00 -1.25,-253.74 -1.56,-254.52 -1.59,-255.36 -1.34,-256.26"/>
    </edge>
    <edge id=":CJ_7_w2" function="walkingarea">
        <lane id=":CJ_7_w2_0" index="0" allow="pedestrian" speed="2.78" length="3.30" width="4.00" shape="-5.22,-243.83 -6.30,-242.14 -8.74,-241.47 -10.39,-242.59 -9.65,-243.51 -8.86,-244.14 -8.03,-244.49 -7.14,-244.55 -6.21,-244.33"/>
    </edge>
    <edge id=":CJ_7_w3" function="walkingarea">
        <lane id=":CJ_7_w3_0" index="0" allow="pedestrian" speed="2.78" length="3.15" width="4.00" shape="-13.02,-244.39 -14.68,-245.51 -14.99,-247.72 -13.90,-249.40 -13.05,-248.73 -12.49,-247.99 -12.20,-247.19 -12.20,-246.32 -12.48,-245.39"/>
    </edge>
    <edge id=":CJ_8_0" function="internal">
        <lane id=":CJ_8_0_0" index="0" allow="bicycle" speed="5.80" length="7.55" width="1.00" shape="-34.05,-278.80 -35.54,-277.10 -37.09,-276.20 -38.72,-276.12 -40.43,-276.85"/>
    </edge>
    <edge id=":CJ_8_1" function="internal">
        <lane id=":CJ_8_1_0" index="0" allow="bicycle" speed="8.27" length="16.26" width="1.00" shape="-34.05,-278.80 -36.75,-274.02 -37.77,-270.02 -37.13,-266.81 -34.80,-264.38"/>
    </edge>
    <edge id=":CJ_8_2" function="internal">
        <lane id=":CJ_8_2_0" index="0" allow="bicycle" speed="5.95" length="3.05" width="2.50" shape="-30.66,-270.79 -32.27,-272.19 -32.67,-273.02"/>
    </edge>
    <edge id=":CJ_8_3" function="internal">
        <lane id=":CJ_8_3_0" index="0" allow="bicycle" speed="13.89" length="11.49" width="2.50" shape="-30.66,-270.79 -40.43,-276.85"/>
    </edge>
    <edge id=":CJ_8_4" function="internal">
        <lane id=":CJ_8_4_0" index="0" disallow="pedestrian" speed="7.30" length="1.53" shape="-32.70,-267.64 -33.76,-268.74"/>
    </edge>
    <edge id=":CJ_8_5" function="internal">
        <lane id=":CJ_8_5_0" index="0" disallow="pedestrian" speed="13.89" length="11.51" width="5.00" shape="-32.70,-267.64 -42.48,-273.70"/>
    </edge>
    <edge id=":CJ_8_11" function="internal">
        <lane id=":CJ_8_11_0" index="0" allow="bicycle" speed="5.95" length="4.68" width="2.50" shape="-32.67,-273.02 -33.03,-273.76 -32.94,-275.50 -32.00,-277.41"/>
    </edge>
    <edge id=":CJ_8_12" function="internal">
        <lane id=":CJ_8_12_0" index="0" disallow="pedestrian" speed="7.30" length="9.71" shape="-33.76,-268.74 -34.33,-269.34 -34.81,-271.56 -34.13,-274.32 -32.29,-277.60"/>
    </edge>
    <edge id=":CJ_8_6" function="internal">
        <lane id=":CJ_8_6_0" index="0" allow="bicycle" speed="6.69" length="9.51" width="2.50" shape="-42.97,-262.56 -41.22,-264.53 -39.28,-265.50 -37.14,-265.44 -34.80,-264.38"/>
    </edge>
    <edge id=":CJ_8_7" function="internal">
        <lane id=":CJ_8_7_0" index="0" disallow="pedestrian" speed="13.89" length="18.46" shape="-43.26,-262.75 -32.29,-277.60"/>
    </edge>
    <edge id=":CJ_8_8" function="internal">
        <lane id=":CJ_8_8_0" index="0" disallow="pedestrian" speed="7.45" length="12.27" width="5.00" shape="-43.26,-262.75 -41.22,-266.44 -40.41,-269.49 -40.83,-271.91 -42.48,-273.70"/>
    </edge>