<?xml version="1.0" encoding="UTF-8"?>

<!-- generated on 2026-03-25T16:37:27.945177+00:00 by Eclipse SUMO netedit 1.25.0
<neteditConfiguration xmlns:xsi="http://www.w3.org/2001/XMLSchema-instance" xsi:noNamespaceSchemaLocation="http://sumo.dlr.de/xsd/neteditConfiguration.xsd">

    <input>
        <sumo-net-file value="networks/demo/main.net.xml"/>
    </input>

    <output>
        <output-file value="networks/demo/main.net.xml"/>
    </output>

    <processing>
        <geometry.min-radius.fix.railways value="false"/>
        <geometry.avoid-overlap value="false"/>
        <geometry.max-grade.fix value="false"/>
        <offset.disable-normalization value="true"/>
        <lefthand value="1"/>
    </processing>

    <junctions>
        <no-internal-links value="false"/>
        <no-turnarounds value="true"/>
        <junctions.corner-detail value="5"/>
        <junctions.limit-turn-speed value="5.50"/>
        <rectangular-lane-cut value="0"/>
    </junctions>

    <pedestrian>
        <walkingareas value="0"/>
    </pedestrian>

</neteditConfiguration>
-->

<net version="1.20" junctionCornerDetail="5" lefthand="true" limitTurnSpeed="5.50" avoidOverlap="0" xmlns:xsi="http://www.w3.org/2001/XMLSchema-instance" xsi:noNamespaceSchemaLocation="http://sumo.dlr.de/xsd/net_file.xsd">

    <location netOffset="0.00,0.00" convBoundary="-70.41,-330.52,234.64,12.56" origBoundary="-10000000000.00,-10000000000.00,10000000000.00,10000000000.00" projParameter="!"/>

    <edge id=":CJ_1_0" function="internal">
        <lane id=":CJ_1_0_0" index="0" allow="bicycle" speed="6.50" length="5.25" width="1.00" shape="37.20,-233.86 35.37,-231.79 33.39,-230.74 33.14,-230.74"/>
    </edge>
    <edge id=":CJ_1_1" function="internal">
        <lane id=":CJ_1_1_0" index="0" allow="bicycle" speed="13.89" length="19.56" width="1.00" shape="37.20,-233.86 25.90,-217.89"/>
    </edge>
    <edge id=":CJ_1_2" function="internal">
        <lane id=":CJ_1_2_0" index="0" allow="bicycle" speed="9.29" length="8.82" width="1.00" shape="37.57,-233.61 35.63,-229.03 35.81,-225.18"/>
    </edge>
    <edge id=":CJ_1_3" function="internal">
        <lane id=":CJ_1_3_0" index="0" disallow="pedestrian" speed="8.24" length="10.48" width="5.00" shape="39.26,-232.45 36.19,-229.20 34.07,-227.31 31.48,-227.20 30.94,-227.37"/>
    </edge>
    <edge id=":CJ_1_4" function="internal">
        <lane id=":CJ_1_4_0" index="0" disallow="pedestrian" speed="13.89" length="19.54" width="4.00" shape="39.26,-232.45 27.98,-216.49"/>
    </edge>
    <edge id=":CJ_1_5" function="internal">
        <lane id=":CJ_1_5_0" index="0" disallow="pedestrian" speed="8.78" length="4.44" width="5.00" shape="39.26,-232.45 37.65,-228.45 37.65,-228.32"/>
    </edge>
    <edge id=":CJ_1_20" function="internal">
        <lane id=":CJ_1_20_0" index="0" allow="bicycle" speed="6.50" length="4.34" width="1.00" shape="33.14,-230.74 31.28,-230.73 29.02,-231.74"/>
    </edge>
    <edge id=":CJ_1_21" function="internal">
        <lane id=":CJ_1_21_0" index="0" allow="bicycle" speed="9.29" length="11.87" width="1.00" shape="35.81,-225.18 36.93,-221.92 38.93,-218.72 42.17,-215.38"/>
    </edge>
    <edge id=":CJ_1_22" function="internal">
        <lane id=":CJ_1_22_0" index="0" disallow="pedestrian" speed="8.24" length="4.16" width="5.00" shape="30.94,-227.37 26.96,-228.60"/>
    </edge>
    <edge id=":CJ_1_23" function="internal">
        <lane id=":CJ_1_23_0" index="0" disallow="pedestrian" speed="8.78" length="13.01" width="5.00" shape="37.65,-228.32 37.56,-225.60 38.34,-222.70 40.09,-220.29 43.73,-217.99"/>
    </edge>
    <edge id=":CJ_1_6" function="internal">
        <lane id=":CJ_1_6_0" index="0" allow="bicycle" speed="6.32" length="4.66" width="1.00" shape="45.74,-221.15 44.01,-222.69 43.24,-224.48 43.28,-224.88"/>
    </edge>
    <edge id=":CJ_1_7" function="internal">
        <lane id=":CJ_1_7_0" index="0" allow="bicycle" speed="13.89" length="19.79" width="2.50" shape="45.74,-221.15 29.02,-231.74"/>
    </edge>
    <edge id=":CJ_1_8" function="internal">
        <lane id=":CJ_1_8_0" index="0" allow="bicycle" speed="9.70" length="9.70" width="1.00" shape="46.03,-221.62 41.31,-222.17 37.50,-222.23 36.38,-222.06"/>
    </edge>
    <edge id=":CJ_1_9" function="internal">
        <lane id=":CJ_1_9_0" index="0" allow="bicycle" speed="4.21" length="3.74" width="2.50" shape="45.74,-221.15 43.43,-221.10 42.20,-220.36"/>
    </edge>
    <edge id=":CJ_1_24" function="internal">
        <lane id=":CJ_1_24_0" index="0" allow="bicycle" speed="6.32" length="4.22" width="1.00" shape="43.28,-224.88 43.44,-226.52 44.61,-228.81"/>
    </edge>
    <edge id=":CJ_1_25" function="internal">
        <lane id=":CJ_1_25_0" index="0" allow="bicycle" speed="9.70" length="11.49" width="1.00" shape="36.38,-222.06 34.27,-221.73 30.65,-220.96 25.90,-217.89"/>
    </edge>
    <edge id=":CJ_1_26" function="internal">
        <lane id=":CJ_1_26_0" index="0" allow="bicycle" speed="4.21" length="3.74" width="2.50" shape="42.20,-220.36 42.05,-218.94 42.99,-216.83"/>
    </edge>
    <edge id=":CJ_1_10" function="internal">
        <lane id=":CJ_1_10_0" index="0" allow="bicycle" speed="6.50" length="5.26" width="1.00" shape="33.44,-212.82 35.21,-214.80 37.17,-215.78 37.58,-215.78"/>
    </edge>
    <edge id=":CJ_1_11" function="internal">
        <lane id=":CJ_1_11_0" index="0" allow="bicycle" speed="13.89" length="19.51" width="1.00" shape="33.44,-212.82 44.61,-228.81"/>
    </edge>
    <edge id=":CJ_1_12" function="internal">
        <lane id=":CJ_1_12_0" index="0" allow="bicycle" speed="9.39" length="9.00" width="1.00" shape="33.44,-212.82 35.04,-217.66 34.80,-220.96 34.66,-221.53"/>
    </edge>
    <edge id=":CJ_1_13" function="internal">
        <lane id=":CJ_1_13_0" index="0" disallow="pedestrian" speed="8.28" length="10.59" width="5.00" shape="31.37,-214.21 34.37,-217.77 36.86,-219.29 39.87,-219.38"/>
    </edge>
    <edge id=":CJ_1_14" function="internal">
        <lane id=":CJ_1_14_0" index="0" disallow="pedestrian" speed="13.89" length="19.52" width="4.00" shape="31.37,-214.21 42.54,-230.22"/>
    </edge>
    <edge id=":CJ_1_15" function="internal">
        <lane id=":CJ_1_15_0" index="0" disallow="pedestrian" speed="8.81" length="4.97" width="5.00" shape="31.37,-214.21 33.34,-218.28 33.27,-218.72"/>
    </edge>
    <edge id=":CJ_1_27" function="internal">
        <lane id=":CJ_1_27_0" index="0" allow="bicycle" speed="6.50" length="4.29" width="1.00" shape="37.58,-215.78 39.31,-215.75 41.64,-214.72"/>
    </edge>
    <edge id=":CJ_1_28" function="internal">
        <lane id=":CJ_1_28_0" index="0" allow="bicycle" speed="9.39" length="11.87" width="1.00" shape="34.66,-221.53 33.91,-224.47 32.17,-228.08 29.02,-231.74"/>
    </edge>
    <edge id=":CJ_1_29" function="internal">
        <lane id=":CJ_1_29_0" index="0" disallow="pedestrian" speed="8.28" length="4.11" width="5.00" shape="39.87,-219.38 40.05,-219.39 43.73,-218.00"/>
    </edge>
    <edge id=":CJ_1_30" function="internal">
        <lane id=":CJ_1_30_0" index="0" disallow="pedestrian" speed="8.81" length="12.37" width="5.00" shape="33.27,-218.72 32.93,-220.98 32.40,-223.25 30.91,-225.65 26.96,-228.60"/>
    </edge>
    <edge id=":CJ_1_16" function="internal">
        <lane id=":CJ_1_16_0" index="0" allow="bicycle" speed="6.30" length="4.51" width="1.00" shape="24.90,-225.46 26.55,-223.95 27.27,-222.18 27.23,-221.82"/>
    </edge>
    <edge id=":CJ_1_17" function="internal">
        <lane id=":CJ_1_17_0" index="0" allow="bicycle" speed="13.89" length="19.89" width="2.50" shape="24.90,-225.46 41.64,-214.72"/>
    </edge>
    <edge id=":CJ_1_18" function="internal">
        <lane id=":CJ_1_18_0" index="0" allow="bicycle" speed="9.77" length="9.97" width="1.00" shape="24.90,-225.46 29.47,-224.06 33.56,-223.94 34.65,-224.09"/>
    </edge>
    <edge id=":CJ_1_19" function="internal">
        <lane id=":CJ_1_19_0" index="0" allow="bicycle" speed="4.17" length="3.66" width="2.50" shape="24.90,-225.46 27.16,-225.48 28.37,-226.18"/>
    </edge>
    <edge id=":CJ_1_31" function="internal">
        <lane id=":CJ_1_31_0" index="0" allow="bicycle" speed="6.30" length="4.21" width="1.00" shape="27.23,-221.82 27.05,-220.16 25.90,-217.89"/>
    </edge>
    <edge id=":CJ_1_32" function="internal">
        <lane id=":CJ_1_32_0" index="0" allow="bicycle" speed="9.77" length="11.64" width="1.00" shape="34.65,-224.09 37.24,-224.46 40.97,-226.19 45.43,-228.25"/>
    </edge>
    <edge id=":CJ_1_33" function="internal">
        <lane id=":CJ_1_33_0" index="0" allow="bicycle" speed="4.17" length="3.66" width="2.50" shape="28.37,-226.18 28.53,-227.57 27.65,-229.65"/>
    </edge>
    <edge id=":CJ_1_c0" function="crossing" crossingEdges="GowSt_1_2 GowSt_2_1">
        <lane id=":CJ_1_c0_0" index="0" allow="pedestrian" speed="2.78" length="9.96" width="4.00" shape="43.90,-226.88 35.66,-232.48" outlineShape="45.10,228.48 36.70,234.19 35.80,232.95 34.74,232.15 33.60,231.73 33.23,231.72 44.48,224.06 44.08,225.05 44.03,226.14 44.34,227.30"/>
    </edge>
    <edge id=":CJ_1_c1" function="crossing" crossingEdges="TorPl_1_4 TorPl_2_1">
        <lane id=":CJ_1_c1_0" index="0" allow="pedestrian" speed="2.78" length="10.13" width="4.00" shape="39.28,-214.74 44.72,-223.28" outlineShape="40.97,213.66 46.41,222.21 46.46,222.29 46.41,222.21 45.27,223.08 44.49,224.03 44.08,225.05 44.04,225.93 36.95,214.79 40.97,213.66 39.36,211.13 36.35,210.86 33.86,212.54 34.79,213.67 35.83,214.42 36.95,214.79"/>
    </edge>
    <edge id=":CJ_1_c2" function="crossing" crossingEdges="GowSt_2_2 GowSt_1_1">
        <lane id=":CJ_1_c2_0" index="0" allow="pedestrian" speed="2.78" length="10.08" width="4.00" shape="26.61,-219.83 34.97,-214.20" outlineShape="25.49,218.17 33.86,212.54 33.94,212.48 34.79,213.67 35.83,214.42 36.97,214.80 37.66,214.80 26.05,222.61 25.49,218.17 23.00,219.84 22.58,221.90 24.22,224.41 25.31,223.55 26.05,222.61"/>
    </edge>
    <edge id=":CJ_1_c3" function="crossing" crossingEdges="TorPl_2_2 TorPl_1_3">
        <lane id=":CJ_1_c3_0" index="0" allow="pedestrian" speed="2.78" length="10.01" width="4.00" shape="31.37,-231.69 25.89,-223.32" outlineShape="29.75,232.87 24.17,224.33 25.31,223.55 26.05,222.61 26.44,221.61 26.47,220.55 33.85,231.82 33.60,231.73 32.38,231.69 31.08,232.05"/>
    </edge>
    <edge id=":CJ_1_w0" function="walkingarea">
        <lane id=":CJ_1_w0_0" index="0" allow="pedestrian" speed="2.78" length="4.19" width="4.00" shape="29.70,-232.78 31.34,-235.29 34.30,-235.83 36.78,-234.14 35.80,-232.95 34.74,-232.15 33.60,-231.73 32.38,-231.69 31.08,-232.05"/>
    </edge>
    <edge id=":CJ_1_w1" function="walkingarea">
        <lane id=":CJ_1_w1_0" index="0" allow="pedestrian" speed="2.78" length="3.74" width="4.00" shape="45.02,-228.53 47.50,-226.84 48.02,-224.73 46.41,-222.21 45.27,-223.08 44.49,-224.03 44.08,-225.05 44.03,-226.14 44.34,-227.30"/>
    </edge>
    <edge id=":CJ_1_w2" function="walkingarea">
        <lane id=":CJ_1_w2_0" index="0" allow="pedestrian" speed="2.78" length="4.19" width="4.00" shape="40.97,-213.66 39.36,-211.13 36.35,-210.86 33.86,-212.54 34.79,-213.67 35.83,-214.42 36.97,-214.80 38.20,-214.80 39.54,-214.42"/>
    </edge>
    <edge id=":CJ_1_w3" function="walkingarea">
        <lane id=":CJ_1_w3_0" index="0" allow="pedestrian" speed="2.78" length="3.67" width="4.00" shape="25.49,-218.17 23.00,-219.84 22.58,-221.90 24.22,-224.41 25.31,-223.55 26.05,-222.61 26.44,-221.61 26.47,-220.53 26.16,-219.39"/>
    </edge>
    <edge id=":CJ_2_0" function="internal">
        <lane id=":CJ_2_0_0" index="0" allow="bicycle" speed="6.56" length="8.72" width="2.50" shape="99.03,-194.04 97.34,-192.11 95.54,-191.11 93.63,-191.04 91.61,-191.90"/>
    </edge>
    <edge id=":CJ_2_1" function="internal">
        <lane id=":CJ_2_1_0" index="0" disallow="pedestrian" speed="7.55" length="12.47" width="5.00" shape="99.65,-193.62 97.87,-190.25 97.42,-187.31 98.30,-184.81 100.51,-182.73"/>
    </edge>
    <edge id=":CJ_2_2" function="internal">
        <lane id=":CJ_2_2_0" index="0" allow="bicycle" speed="5.78" length="7.26" width="1.00" shape="102.58,-185.92 101.18,-187.18 100.58,-188.64 100.76,-190.32 101.72,-192.20"/>
    </edge>
    <edge id=":CJ_2_3" function="internal">
        <lane id=":CJ_2_3_0" index="0" allow="bicycle" speed="13.89" length="12.49" width="2.50" shape="102.58,-185.92 91.61,-191.90"/>
    </edge>
    <edge id=":CJ_2_4" function="internal">
        <lane id=":CJ_2_4_0" index="0" allow="bicycle" speed="4.19" length="7.37" width="2.50" shape="102.58,-185.92 100.30,-185.89 99.09,-185.17 98.93,-183.77 99.83,-181.68"/>
    </edge>
    <edge id=":CJ_2_5" function="internal">
        <lane id=":CJ_2_5_0" index="0" allow="bicycle" speed="13.89" length="12.44" width="2.50" shape="87.54,-185.51 98.48,-179.58"/>
    </edge>
    <edge id=":CJ_2_6" function="internal">
        <lane id=":CJ_2_6_0" index="0" allow="bicycle" speed="8.87" length="8.24" width="1.00" shape="87.54,-185.51 90.94,-184.33 94.44,-185.05 95.30,-185.68"/>
    </edge>
    <edge id=":CJ_2_7" function="internal">
        <lane id=":CJ_2_7_0" index="0" disallow="pedestrian" speed="13.89" length="12.46" width="5.00" shape="89.56,-188.68 100.51,-182.73"/>
    </edge>
    <edge id=":CJ_2_8" function="internal">
        <lane id=":CJ_2_8_0" index="0" allow="bicycle" speed="8.87" length="9.22" width="1.00" shape="95.30,-185.68 98.03,-187.68 101.72,-192.20"/>
    </edge>
    <edge id=":CJ_2_c0" function="crossing" crossingEdges="MalSt_1_1 MalSt_2_1">
        <lane id=":CJ_2_c0_0" index="0" allow="pedestrian" speed="2.78" length="5.01" width="4.00" shape="101.01,-190.27 96.87,-193.09" outlineShape="102.13,191.92 97.99,194.74 97.12,193.64 96.21,192.86 95.28,192.40 94.49,192.29 95.74,191.44 99.88,188.62 102.11,187.96 101.74,188.42 101.41,189.22 101.37,190.07 101.61,190.97"/>
    </edge>
    <edge id=":CJ_2_c1" function="crossing" crossingEdges="BynPl_1_1 BynPl_2_3">
        <lane id=":CJ_2_c1_0" index="0" allow="pedestrian" speed="2.78" length="10.05" width="4.00" shape="96.12,-179.62 101.58,-188.05" outlineShape="97.80,178.53 103.26,186.97 103.31,187.05 103.25,186.97 102.36,187.67 101.74,188.42 101.41,189.22 101.37,190.07 101.53,190.67 99.90,189.14 94.44,180.70 97.80,178.53 96.71,176.85 89.13,177.57 87.47,178.69 85.78,179.82 85.26,181.93 86.87,184.46 94.44,180.70"/>
    </edge>
    <edge id=":CJ_2_w0" function="walkingarea">
        <lane id=":CJ_2_w0_0" index="0" allow="pedestrian" speed="2.78" length="3.47" width="4.00" shape="92.29,-192.95 93.90,-195.48 96.34,-195.87 97.99,-194.75 97.12,-193.64 96.21,-192.86 95.28,-192.40 94.31,-192.26 93.31,-192.45"/>
    </edge>
    <edge id=":CJ_2_w1" function="walkingarea">
        <lane id=":CJ_2_w1_0" index="0" allow="pedestrian" speed="2.78" length="2.95" width="4.00" shape="102.13,-191.92 103.79,-190.79 104.34,-188.65 103.25,-186.97 102.36,-187.67 101.74,-188.42 101.41,-189.22 101.37,-190.07 101.61,-190.97"/>
    </edge>
    <edge id=":CJ_2_w2" function="walkingarea">
        <lane id=":CJ_2_w2_0" index="0" allow="pedestrian" speed="2.78" length="7.41" width="4.00" shape="94.44,-180.70 97.80,-178.53 96.71,-176.85 89.13,-177.57 87.47,-178.69 85.78,-179.82 85.26,-181.93 86.87,-184.46"/>
    </edge>
    <edge id=":CJ_3_0" function="internal">
        <lane id=":CJ_3_0_0" index="0" allow="bicycle" speed="13.89" length="4.50" width="2.50" shape="142.51,-157.32 141.96,-158.53 141.53,-159.35 140.98,-160.08 140.06,-161.04"/>
    </edge>
    <edge id=":CJ_3_1" function="internal">
        <lane id=":CJ_3_1_0" index="0" allow="bicycle" speed="9.86" length="2.29" width="2.50" shape="134.69,-155.55 135.02,-155.22 135.24,-154.98 135.41,-154.72 135.61,-154.30"/>
        <lane id=":CJ_3_1_1" index="1" disallow="pedestrian" speed="13.66" length="2.29" width="5.00" shape="137.31,-158.23 137.94,-157.59 138.35,-157.13 138.67,-156.61 139.05,-155.80"/>
    </edge>
    <edge id=":CJ_3_c0" function="crossing" crossingEdges="BynPl_1_2 BynPl_2_2">
        <lane id=":CJ_3_c0_0" index="0" allow="pedestrian" speed="2.78" length="9.99" width="4.00" shape="133.67,-155.63 142.80,-159.66" outlineShape="134.38,153.76 143.70,157.87 143.49,162.15 143.78,161.83 144.22,161.22 144.58,160.57 144.97,159.75 145.48,158.64 143.66,157.80 142.00,161.49 132.86,157.46 133.39,154.20 133.83,154.63 133.96,154.51 134.09,154.39 134.19,154.28 134.28,154.16 134.37,154.01"/>
    </edge>
    <edge id=":CJ_3_w0" function="walkingarea">
        <lane id=":CJ_3_w0_0" index="0" allow="pedestrian" speed="2.78" length="3.60" width="4.00" shape="140.93,-161.93 142.33,-163.36 143.19,-162.50 143.78,-161.83 144.22,-161.22 144.58,-160.57 144.97,-159.75 145.48,-158.64 143.66,-157.80 143.21,-158.80 142.87,-159.51 142.56,-160.08 142.19,-160.60 141.67,-161.19"/>
    </edge>
    <edge id=":CJ_3_w1" function="walkingarea">
        <lane id=":CJ_3_w1_0" index="0" allow="pedestrian" speed="2.78" length="1.57" width="4.00" shape="134.47,-153.80 132.64,-152.99 132.39,-153.25 133.83,-154.63 133.96,-154.51 134.09,-154.39 134.19,-154.28 134.28,-154.16 134.37,-154.01"/>
    </edge>
    <edge id=":CJ_4_0" function="internal">
        <lane id=":CJ_4_0_0" index="0" allow="bicycle" speed="13.89" length="3.92" width="2.50" shape="158.20,-118.76 155.18,-121.27"/>
    </edge>
    <edge id=":CJ_4_1" function="internal">
        <lane id=":CJ_4_1_0" index="0" allow="bicycle" speed="13.89" length="4.19" width="2.50" shape="150.43,-115.12 153.84,-112.53"/>
        <lane id=":CJ_4_1_1" index="1" disallow="pedestrian" speed="13.89" length="4.19" width="5.00" shape="152.72,-118.09 155.99,-115.60"/>
    </edge>
    <edge id=":CJ_4_c0" function="crossing" crossingEdges="BynPl_1_3 BynPl_2_1">
        <lane id=":CJ_4_c0_0" index="0" allow="pedestrian" speed="2.78" length="10.15" width="4.00" shape="151.48,-112.65 157.32,-120.95" outlineShape="153.12,111.50 158.96,119.80 156.99,123.62 157.17,123.84 160.08,121.41 158.98,119.91 155.69,122.10 149.85,113.80 153.12,111.51 151.97,109.87 148.78,112.29"/>
    </edge>
    <edge id=":CJ_4_w0" function="walkingarea">
        <lane id=":CJ_4_w0_0" index="0" allow="pedestrian" speed="2.78" length="2.75" width="4.00" shape="155.95,-122.26 157.17,-123.84 160.08,-121.41 158.90,-119.80 155.69,-122.10"/>
    </edge>
    <edge id=":CJ_4_w1" function="walkingarea">
        <lane id=":CJ_4_w1_0" index="0" allow="pedestrian" speed="2.78" length="3.05" width="4.00" shape="149.85,-113.80 153.12,-111.51 151.97,-109.87 148.45,-112.53 149.64,-114.14"/>
    </edge>
    <edge id=":CJ_5_0" function="internal">
        <lane id=":CJ_5_0_0" index="0" allow="bicycle" speed="13.89" length="14.59" width="2.50" shape="174.62,-107.95 162.30,-115.77"/>
    </edge>
    <edge id=":CJ_5_1" function="internal">
        <lane id=":CJ_5_1_0" index="0" allow="bicycle" speed="9.03" length="18.51" width="2.50" shape="174.62,-107.95 170.48,-109.78 166.50,-109.59 162.68,-107.38 159.03,-103.15"/>
    </edge>
    <edge id=":CJ_5_2" function="internal">
        <lane id=":CJ_5_2_0" index="0" allow="bicycle" speed="4.21" length="7.47" width="2.50" shape="174.62,-107.95 172.31,-107.96 171.06,-107.26 170.88,-105.84 171.76,-103.71"/>
    </edge>
    <edge id=":CJ_5_3" function="internal">
        <lane id=":CJ_5_3_0" index="0" allow="bicycle" speed="6.24" length="7.91" width="2.50" shape="163.58,-100.09 165.08,-101.76 166.71,-102.57 168.47,-102.53 170.36,-101.63"/>
        <lane id=":CJ_5_3_1" index="1" disallow="pedestrian" speed="7.39" length="11.65" width="5.00" shape="162.96,-100.51 165.42,-103.51 167.82,-105.21 170.17,-105.62 172.46,-104.74"/>
    </edge>
    <edge id=":CJ_5_5" function="internal">
        <lane id=":CJ_5_5_0" index="0" allow="bicycle" speed="8.79" length="16.66" width="2.50" shape="162.34,-100.94 164.87,-105.57 165.70,-109.59 164.85,-112.99 162.30,-115.77"/>
    </edge>
    <edge id=":CJ_5_6" function="internal">
        <lane id=":CJ_5_6_0" index="0" allow="bicycle" speed="5.96" length="2.91" width="2.50" shape="157.87,-109.70 159.37,-108.29 159.72,-107.52"/>
    </edge>
    <edge id=":CJ_5_7" function="internal">
        <lane id=":CJ_5_7_0" index="0" allow="bicycle" speed="13.89" length="14.87" width="2.50" shape="157.87,-109.70 170.36,-101.63"/>
    </edge>
    <edge id=":CJ_5_8" function="internal">
        <lane id=":CJ_5_8_0" index="0" disallow="pedestrian" speed="7.38" length="1.45" width="4.00" shape="160.08,-112.73 161.06,-111.66"/>
    </edge>
    <edge id=":CJ_5_9" function="internal">
        <lane id=":CJ_5_9_0" index="0" disallow="pedestrian" speed="13.89" length="14.73" width="5.00" shape="160.08,-112.73 172.46,-104.74"/>
    </edge>
    <edge id=":CJ_5_10" function="internal">
        <lane id=":CJ_5_10_0" index="0" allow="bicycle" speed="3.73" length="3.66" width="2.50" shape="160.80,-113.76 161.93,-113.70 162.56,-114.01 162.68,-114.71 162.30,-115.77"/>
    </edge>
    <edge id=":CJ_5_11" function="internal">
        <lane id=":CJ_5_11_0" index="0" allow="bicycle" speed="5.96" length="4.66" width="2.50" shape="159.72,-107.52 160.06,-106.73 159.95,-105.02 159.03,-103.15"/>
    </edge>
    <edge id=":CJ_5_12" function="internal">
        <lane id=":CJ_5_12_0" index="0" disallow="pedestrian" speed="7.38" length="9.77" width="4.00" shape="161.06,-111.66 161.68,-110.97 162.14,-108.72 161.46,-105.97 159.65,-102.73"/>
    </edge>
    <edge id=":CJ_5_c0" function="crossing" crossingEdges="GorSq_2_3 GorSq_1_1">
        <lane id=":CJ_5_c0_0" index="0" allow="pedestrian" speed="2.78" length="7.99" width="4.00" shape="159.12,-105.51 165.74,-101.04" outlineShape="158.00,103.85 164.62,99.38 165.35,100.30 166.13,100.92 166.95,101.27 167.82,101.33 168.42,101.18 166.86,102.70 160.24,107.16 158.04,107.89 158.49,107.27 158.76,106.49 158.77,105.67 158.51,104.78"/>
    </edge>
    <edge id=":CJ_5_w0" function="walkingarea">
        <lane id=":CJ_5_w0_0" index="0" allow="pedestrian" speed="2.78" length="14.50" width="2.00" shape="163.04,-116.78 164.22,-118.40 176.43,-110.65 175.31,-108.99"/>
    </edge>
    <edge id=":CJ_5_w1" function="walkingarea">
        <lane id=":CJ_5_w1_0" index="0" allow="pedestrian" speed="2.78" length="3.20" width="4.00" shape="169.66,-100.60 168.55,-98.94 166.27,-98.26 164.62,-99.39 165.35,-100.30 166.13,-100.92 166.95,-101.27 167.82,-101.33 168.72,-101.10"/>
    </edge>
    <edge id=":CJ_5_w2" function="walkingarea">
        <lane id=":CJ_5_w2_0" index="0" allow="pedestrian" speed="2.78" length="3.09" width="4.00" shape="157.99,-103.85 156.34,-104.98 155.97,-107.07 157.12,-108.71 157.96,-108.00 158.49,-107.27 158.76,-106.49 158.77,-105.67 158.51,-104.78"/>
    </edge>
    <edge id=":CJ_6_0" function="internal">
        <lane id=":CJ_6_0_0" index="0" allow="bicycle" speed="13.89" length="4.26" width="2.50" shape="209.64,-84.18 206.19,-86.68"/>
    </edge>
    <edge id=":CJ_6_1" function="internal">
        <lane id=":CJ_6_1_0" index="0" allow="bicycle" speed="13.89" length="4.29" width="2.50" shape="201.94,-80.37 205.46,-77.90"/>
        <lane id=":CJ_6_1_1" index="1" disallow="pedestrian" speed="13.89" length="4.29" width="5.00" shape="204.04,-83.48 207.54,-81.02"/>
    </edge>
    <edge id=":CJ_6_c0" function="crossing" crossingEdges="GorSq_1_3 GorSq_2_1">
        <lane id=":CJ_6_c0_0" index="0" allow="pedestrian" speed="2.78" length="10.04" width="4.00" shape="203.10,-77.97 208.67,-86.33" outlineShape="204.77,76.86 210.34,85.22 210.39,85.31 210.33,85.22 207.01,87.44 201.44,79.08 204.77,76.86 203.66,75.20 200.13,77.67 201.24,79.33 201.44,79.08"/>
    </edge>
    <edge id=":CJ_6_w0" function="walkingarea">
        <lane id=":CJ_6_w0_0" index="0" allow="pedestrian" speed="2.78" length="3.00" width="4.00" shape="206.89,-87.72 208.01,-89.38 211.44,-86.88 210.33,-85.22 207.01,-87.44"/>
    </edge>
    <edge id=":CJ_6_w1" function="walkingarea">
        <lane id=":CJ_6_w1_0" index="0" allow="pedestrian" speed="2.78" length="3.01" width="4.00" shape="201.44,-79.08 204.77,-76.86 203.66,-75.20 200.13,-77.67 201.24,-79.33"/>
    </edge>
    <edge id=":CJ_7_0" function="internal">
        <lane id=":CJ_7_0_0" index="0" allow="bicycle" speed="6.43" length="8.61" width="2.50" shape="-2.19,-259.16 -3.90,-257.20 -5.69,-256.17 -7.54,-256.05 -9.46,-256.87"/>
        <lane id=":CJ_7_0_1" index="1" disallow="pedestrian" speed="7.50" length="12.06" width="5.00" shape="-1.90,-258.96 -4.57,-255.67 -7.06,-253.70 -9.37,-253.05 -11.51,-253.73"/>
    </edge>
    <edge id=":CJ_7_2" function="internal">
        <lane id=":CJ_7_2_0" index="0" allow="bicycle" speed="8.23" length="15.42" width="2.50" shape="-1.61,-258.76 -4.68,-253.79 -6.27,-249.83 -6.36,-246.90 -4.96,-244.98"/>
    </edge>
    <edge id=":CJ_7_3" function="internal">
        <lane id=":CJ_7_3_0" index="0" allow="bicycle" speed="13.89" length="10.27" width="2.50" shape="-0.84,-251.28 -9.46,-256.87"/>
        <lane id=":CJ_7_3_1" index="1" disallow="pedestrian" speed="13.89" length="10.27" width="5.00" shape="-2.89,-248.14 -11.51,-253.73"/>
    </edge>
    <edge id=":CJ_7_5" function="internal">
        <lane id=":CJ_7_5_0" index="0" allow="bicycle" speed="6.35" length="8.47" width="2.50" shape="-12.11,-242.83 -10.47,-244.75 -8.73,-245.74 -6.89,-245.82 -4.96,-244.98"/>
    </edge>
    <edge id=":CJ_7_6" function="internal">
        <lane id=":CJ_7_6_0" index="0" disallow="pedestrian" speed="7.37" length="11.98" width="5.00" shape="-12.40,-243.03 -10.37,-246.64 -9.55,-249.63 -9.93,-251.99 -11.51,-253.73"/>
    </edge>
    <edge id=":CJ_7_7" function="internal">
        <lane id=":CJ_7_7_0" index="0" allow="bicycle" speed="13.89" length="10.27" width="2.50" shape="-13.63,-250.50 -4.96,-244.98"/>
    </edge>
    <edge id=":CJ_7_c0" function="crossing" crossingEdges="RidGa_2_1">
        <lane id=":CJ_7_c0_0" index="0" allow="pedestrian" speed="2.78" length="3.20" width="4.00" shape="-1.73,-256.41 -4.35,-258.23" outlineShape="-0.59,258.05 -3.21,259.88 -3.29,259.93 -3.21,259.87 -4.11,258.75 -5.02,257.95 -5.94,257.46 -6.58,257.35 -1.55,253.85 -1.78,254.75 -1.69,255.75 -1.30,256.85"/>
    </edge>
    <edge id=":CJ_7_c1" function="crossing" crossingEdges="CheMe_1_1">
        <lane id=":CJ_7_c1_0" index="0" allow="pedestrian" speed="2.78" length="3.20" width="4.00" shape="-12.61,-245.58 -9.96,-243.80" outlineShape="-13.73,243.92 -11.07,242.14 -10.23,243.22 -9.36,243.99 -8.47,244.45 -7.55,244.59 -13.21,248.38 -12.92,247.97 -12.67,247.09 -12.72,246.13 -13.08,245.07"/>
    </edge>
    <edge id=":CJ_7_w0" function="walkingarea">
        <lane id=":CJ_7_w0_0" index="0" allow="pedestrian" speed="2.78" length="3.55" width="4.00" shape="-8.77,-257.91 -7.68,-259.59 -4.85,-261.02 -3.21,-259.87 -4.11,-258.75 -5.02,-257.95 -5.94,-257.46 -6.87,-257.29 -7.82,-257.44"/>
    </edge>
    <edge id=":CJ_7_w1" function="walkingarea">
        <lane id=":CJ_7_w1_0" index="0" allow="pedestrian" speed="2.78" length="3.29" width="4.00" shape="-0.56,-258.03 1.09,-256.89 1.48,-254.83 -0.16,-252.32 -1.01,-253.03 -1.55,-253.84 -1.78,-254.75 -1.69,-255.75 -1.30,-256.85"/>
    </edge>
    <edge id=":CJ_7_w2" function="walkingarea">
        <lane id=":CJ_7_w2_0" index="0" allow="pedestrian" speed="2.78" length="3.28" width="4.00" shape="-5.64,-243.94 -7.28,-241.43 -9.41,-241.02 -11.07,-242.14 -10.23,-243.22 -9.36,-243.99 -8.47,-244.45 -7.55,-244.59 -6.61,-244.42"/>
    </edge>
    <edge id=":CJ_7_w3" function="walkingarea">
        <lane id=":CJ_7_w3_0" index="0" allow="pedestrian" speed="2.78" length="3.39" width="4.00" shape="-13.71,-243.91 -15.37,-245.03 -15.40,-247.78 -14.31,-249.45 -13.46,-248.76 -12.92,-247.97 -12.67,-247.09 -12.72,-246.13 -13.08,-245.07"/>
    </edge>
    <edge id=":CJ_8_0" function="internal">
        <lane id=":CJ_8_0_0" index="0" allow="bicycle" speed="5.79" length="7.53" width="1.00" shape="-34.07,-278.78 -35.54,-277.08 -37.10,-276.20 -38.73,-276.12 -40.43,-276.85"/>
    </edge>
    <edge id=":CJ_8_1" function="internal">
        <lane id=":CJ_8_1_0" index="0" allow="bicycle" speed="8.27" length="16.22" width="1.00" shape="-34.07,-278.78 -36.76,-274.01 -37.80,-270.02 -37.17,-266.81 -34.87,-264.38"/>
    </edge>
    <edge id=":CJ_8_2" function="internal">
        <lane id=":CJ_8_2_0" index="0" allow="bicycle" speed="5.95" length="3.04" width="2.50" shape="-30.70,-270.77 -32.29,-272.17 -32.69,-273.00"/>
    </edge>
    <edge id=":CJ_8_3" function="internal">
        <lane id=":CJ_8_3_0" index="0" allow="bicycle" speed="13.89" length="11.47" width="2.50" shape="-30.70,-270.77 -40.43,-276.85"/>
    </edge>
    <edge id=":CJ_8_4" function="internal">
        <lane id=":CJ_8_4_0" index="0" disallow="pedestrian" speed="7.30" length="1.51" shape="-32.75,-267.63 -33.79,-268.73"/>
    </edge>
    <edge id=":CJ_8_5" function="internal">
        <lane id=":CJ_8_5_0" index="0" disallow="pedestrian" speed="13.89" length="11.47" width="5.00" shape="-32.75,-267.63 -42.48,-273.70"/>
    </edge>
    <edge id=":CJ_8_11" function="internal">
        <lane id=":CJ_8_11_0" index="0" allow="bicycle" speed="5.95" length="4.68" width="2.50" shape="-32.69,-273.00 -33.04,-273.74 -32.95,-275.48 -32.02,-277.39"/>
    </edge>
    <edge id=":CJ_8_12" function="internal">
        <lane id=":CJ_8_12_0" index="0" disallow="pedestrian" speed="7.30" length="9.69" shape="-33.79,-268.73 -34.36,-269.33 -34.83,-271.55 -34.14,-274.31 -32.31,-277.58"/>
    </edge>
    <edge id=":CJ_8_6" function="internal">
        <lane id=":CJ_8_6_0" index="0" allow="bicycle" speed="6.66" length="9.45" width="2.50" shape="-42.97,-262.56 -41.23,-264.53 -39.30,-265.49 -37.18,-265.44 -34.87,-264.38"/>
    </edge>
    <edge id=":CJ_8_7" function="internal">
        <lane id=":CJ_8_7_0" index="0" disallow="pedestrian" speed="13.89" length="18.44" shape="-43.26,-262.75 -32.31,-277.58"/>
    </edge>
    <edge id=":CJ_8_8" function="internal">
        <lane id=":CJ_8_8_0" index="0" disallow="pedestrian" speed="7.45" length="12.27" width="5.00" shape="-43.26,-262.75 -41.22,-266.44 -40.41,-269.49 -40.83,-271.91 -42.48,-273.70"/>
    </edge>
    <edge id=":CJ_8_9" function="internal">