<?xml version="1.0" encoding="UTF-8"?>

<!-- generated on 2025-11-19 09:51:07.632250 by randomTrips.py v1_24_0+0000-b72eb3fabc8
<configuration>
    <net-file value="../networks/demo/main.net.xml"/>
    <output-trip-file value="../routes/demo/bicycle.trips.xml"/>
    <route-file value="../routes/demo/bicycle.rou.xml"/>
    <prefix value="bicycle"/>
    <vehicle-class value="bicycle"/>
    <fringe-factor value="max"/>
    <seed value="1041"/>
    <period value="10.0"/>
    <binomial value="100"/>
</configuration>
-->

<routes xmlns:xsi="http://www.w3.org/2001/XMLSchema-instance" xsi:noNamespaceSchemaLocation="http://sumo.dlr.de/xsd/routes_file.xsd">
    <vType id="bicycle_bicycle" vClass="bicycle"/>
    <trip id="bicycle0" depart="11.00" from="HunSt_2_1" to="GowSt_2_3" type="bicycle_bicycle"/>
    <trip id="bicycle1" depart="12.00" from="HunSt_1_1" to="TorPl_2_5" type="bicycle_bicycle"/>
    <trip id="bicycle2" depart="22.00" from="GowSt_1_1" to="HunSt_1_2" type="bicycle_bicycle"/>
    <trip id="bicycle3" depart="48.00" from="TorPl_1_1" to="HunSt_1_2" type="bicycle_bicycle"/>
    <trip id="bicycle4" depart="66.00" from="GorSq_2_1" to="HunSt_1_2" type="bicycle_bicycle"/>
    <trip id="bicycle5" depart="67.00" from="CheMe_1_1" to="GowSt_2_3" type="bicycle_bicycle"/>
    <trip id="bicycle6" depart="91.00" from="CheMe_1_1" to="GowSt_1_3" type="bicycle_bicycle"/>
    <trip id="bicycle7" depart="96.00" from="GorSq_2_1" to="GorSq_1_3" type="bicycle_bicycle"/>
    <trip id="bicycle8" depart="123.00" from="MalSt_2_1" to="HunSt_1_2" type="bicycle_bicycle"/>
    <trip id="bicycle9" depart="146.00" from="HunSt_2_1" to="MalSt_1_1" type="bicycle_bicycle"/>
    <trip id="bicycle10" depart="162.00" from="GorSq_1_1" to="TorPl_2_5" type="bicycle_bicycle"/>
    <trip id="bicycle11" depart="163.00" from="GowSt_2_1" to="HunSt_1_2" type="bicycle_bicycle"/>
    <trip id="bicycle12" depart="173.00" from="HunSt_1_1" to="GowSt_2_3" type="bicycle_bicycle"/>
    <trip id="bicycle13" depart="177.00" from="RidGa_2_1" to="GorSq_2_3" type="bicycle_bicycle"/>
    <trip id="bicycle14" depart="188.00" from="CheMe_1_1" to="HunSt_1_2" type="bicycle_bicycle"/>
    <trip id="bicycle15" depart="189.00" from="HunSt_2_1" to="TorPl_2_5" type="bicycle_bicycle"/>
    <trip id="bicycle16" depart="193.00" from="HunSt_1_1" to="GowSt_1_3" type="bicycle_bicycle"/>
    <trip id="bicycle17" depart="215.00" from="CheMe_1_1" to="MalSt_1_1" type="bicycle_bicycle"/>
    <trip id="bicycle18" depart="220.00" from="MalSt_2_1" to="GowSt_2_3" type="bicycle_bicycle"/>
    <trip id="bicycle19" depart="225.00" from="HunSt_2_1" to="HunSt_1_2" type="bicycle_bicycle"/>
    <trip id="bicycle20" depart="230.00" from="HunSt_2_1" to="GorSq_1_3" type="bicycle_bicycle"/>
    <trip id="bicycle21" depart="246.00" from="GowSt_1_1" to="TorPl_2_5" type="bicycle_bicycle"/>
    <trip id="bicycle22" depart="246.00" from="GowSt_2_1" to="GorSq_1_3" type="bicycle_bicycle"/>
    <trip id="bicycle23" depart="257.00" from="HunSt_1_1" to="GowSt_1_3" type="bicycle_bicycle"/>
    <trip id="bicycle24" depart="263.00" from="HunSt_1_1" to="GorSq_1_3" type="bicycle_bicycle"/>
    <trip id="bicycle25" depart="280.00" from="MalSt_2_1" to="GorSq_1_3" type="bicycle_bicycle"/>
    <trip id="bicycle26" depart="280.00" from="TorPl_1_1" to="MalSt_1_1" type="bicycle_bicycle"/>
    <trip id="bicycle27" depart="299.00" from="GorSq_2_1" to="GowSt_1_3" type="bicycle_bicycle"/>
    <trip id="bicycle28" depart="300.00" from="GorSq_2_1" to="GorSq_1_3" type="bicycle_bicycle"/>
    <trip id="bicycle29" depart="307.00" from="MalSt_2_1" to="TorPl_2_5" type="bicycle_bicycle"/>
    <trip id="bicycle30" depart="307.00" from="GorSq_1_1" to="TorPl_2_5" type="bicycle_bicycle"/>
    <trip id="bicycle31" depart="312.00" from="GorSq_1_1" to="MalSt_1_1" type="bicycle_bicycle"/>
    <trip id="bicycle32" depart="343.00" from="GorSq_1_1" to="GowSt_2_3" type="bicycle_bicycle"/>
    <trip id="bicycle33" depart="345.00" from="GowSt_2_1" to="GorSq_1_3" type="bicycle_bicycle"/>
    <trip id="bicycle34" depart="354.00" from="GorSq_2_1" to="GorSq_1_3" type="bicycle_bicycle"/>
    <trip id="bicycle35" depart="361.00" from="GorSq_1_1" to="GowSt_1_3" type="bicycle_bicycle"/>
    <trip id="bicycle36" depart="371.00" from="GowSt_2_1" to="MalSt_1_1" type="bicycle_bicycle"/>
    <trip id="bicycle37" depart="373.00" from="GowSt_2_1" to="HunSt_1_2" type="bicycle_bicycle"/>
    <trip id="bicycle38" depart="377.00" from="HunSt_1_1" to="GorSq_1_3" type="bicycle_bicycle"/>
    <trip id="bicycle39" depart="381.00" from="GowSt_2_1" to="GorSq_1_3" type="bicycle_bicycle"/>
    <trip id="bicycle40" depart="410.00" from="HunSt_1_1" to="GorSq_1_3" type="bicycle_bicycle"/>
    <trip id="bicycle41" depart="415.00" from="GorSq_2_1" to="GorSq_2_3" type="bicycle_bicycle"/>
    <trip id="bicycle42" depart="427.00" from="RidGa_2_1" to="GorSq_1_3" type="bicycle_bicycle"/>
    <trip id="bicycle43" depart="428.00" from="TorPl_1_1" to="GowSt_2_3" type="bicycle_bicycle"/>
    <trip id="bicycle44" depart="433.00" from="CheMe_1_1" to="MalSt_1_1" type="bicycle_bicycle"/>
    <trip id="bicycle45" depart="437.00" from="RidGa_2_1" to="GowSt_2_3" type="bicycle_bicycle"/>
    <trip id="bicycle46" depart="442.00" from="HunSt_1_1" to="GorSq_2_3" type="bicycle_bicycle"/>
    <trip id="bicycle47" depart="448.00" from="GowSt_1_1" to="MalSt_1_1" type="bicycle_bicycle"/>
    <trip id="bicycle48" depart="448.00" from="GorSq_2_1" to="GowSt_2_3" type="bicycle_bicycle"/>
    <trip id="bicycle49" depart="458.00" from="GowSt_1_1" to="TorPl_2_5" type="bicycle_bicycle"/>
    <trip id="bicycle50" depart="459.00" from="HunSt_1_1" to="GowSt_1_3" type="bicycle_bicycle"/>
    <trip id="bicycle51" depart="465.00" from="GorSq_1_1" to="TorPl_2_5" type="bicycle_bicycle"/>
    <trip id="bicycle52" depart="483.00" from="GorSq_2_1" to="TorPl_2_5" type="bicycle_bicycle"/>
    <trip id="bicycle53" depart="491.00" from="GorSq_2_1" to="GowSt_2_3" type="bicycle_bicycle"/>
    <trip id="bicycle54" depart="512.00" from="HunSt_1_1" to="HunSt_1_2" type="bicycle_bicycle"/>
    <trip id="bicycle55" depart="527.00" from="RidGa_2_1" to="MalSt_1_1" type="bicycle_bicycle"/>
    <trip id="bicycle56" depart="530.00" from="GorSq_2_1" to="GorSq_1_3" type="bicycle_bicycle"/>
    <trip id="bicycle57" depart="531.00" from="HunSt_2_1" to="HunSt_1_2" type="bicycle_bicycle"/>
    <trip id="bicycle58" depart="540.00" from="HunSt_1_1" to="GowSt_1_3" type="bicycle_bicycle"/>
    <trip id="bicycle59" depart="546.00" from="HunSt_2_1" to="GorSq_1_3" type="bicycle_bicycle"/>
    <trip id="bicycle60" depart="551.00" from="HunSt_2_1" to="GorSq_2_3" type="bicycle_bicycle"/>
    <trip id="bicycle61" depart="553.00" from="TorPl_1_1" to="GorSq_1_3" type="bicycle_bicycle"/>
    <trip id="bicycle62" depart="561.00" from="GowSt_1_1" to="GorSq_1_3" type="bicycle_bicycle"/>
    <trip id="bicycle63" depart="563.00" from="GowSt_1_1" to="GowSt_1_3" type="bicycle_bicycle"/>
    <trip id="bicycle64" depart="586.00" from="GorSq_2_1" to="GowSt_1_3" type="bicycle_bicycle"/>
    <trip id="bicycle65" depart="586.00" from="GorSq_1_1" to="MalSt_1_1" type="bicycle_bicycle"/>
    <trip id="bicycle66" depart="590.00" from="CheMe_1_1" to="MalSt_1_1" type="bicycle_bicycle"/>
    <trip id="bicycle67" depart="590.00" from="GowSt_1_1" to="MalSt_1_1" type="bicycle_bicycle"/>
    <trip id="bicycle68" depart="601.00" from="GowSt_1_1" to="GorSq_1_3" type="bicycle_bicycle"/>
    <trip id="bicycle69" depart="605.00" from="HunSt_2_1" to="GorSq_1_3" type="bicycle_bicycle"/>
    <trip id="bicycle70" depart="612.00" from="CheMe_1_1" to="HunSt_1_2" type="bicycle_bicycle"/>
    <trip id="bicycle71" depart="615.00" from="HunSt_1_1" to="TorPl_2_5" type="bicycle_bicycle"/>
    <trip id="bicycle72" depart="615.00" from="HunSt_2_1" to="GorSq_2_3" type="bicycle_bicycle"/>
    <trip id="bicycle73" depart="616.00" from="HunSt_2_1" to="GorSq_2_3" type="bicycle_bicycle"/>
    <trip id="bicycle74" depart="641.00" from="RidGa_2_1" to="GorSq_2_3" type="bicycle_bicycle"/>
    <trip id="bicycle75" depart="651.00" from="CheMe_1_1" to="GorSq_2_3" type="bicycle_bicycle"/>
    <trip id="bicycle76" depart="663.00" from="GowSt_2_1" to="HunSt_1_2" type="bicycle_bicycle"/>
    <trip id="bicycle77" depart="691.00" from="TorPl_1_1" to="MalSt_1_1" type="bicycle_bicycle"/>
    <trip id="bicycle78" depart="692.00" from="GowSt_2_1" to="HunSt_1_2" type="bicycle_bicycle"/>
    <trip id="bicycle79" depart="700.00" from="GorSq_2_1" to="GorSq_2_3" type="bicycle_bicycle"/>
    <trip id="bicycle80" depart="702.00" from="RidGa_2_1" to="GowSt_1_3" type="bicycle_bicycle"/>
    <trip id="bicycle81" depart="713.00" from="RidGa_2_1" to="MalSt_1_1" type="bicycle_bicycle"/>
    <trip id="bicycle82" depart="714.00" from="GowSt_1_1" to="TorPl_2_5" type="bicycle_bicycle"/>
    <trip id="bicycle83" depart="742.00" from="HunSt_2_1" to="GorSq_1_3" type="bicycle_bicycle"/>
    <trip id="bicycle84" depart="751.00" from="RidGa_2_1" to="TorPl_2_5" type="bicycle_bicycle"/>
    <trip id="bicycle85" depart="756.00" from="GorSq_2_1" to="GorSq_2_3" type="bicycle_bicycle"/>
    <trip id="bicycle86" depart="757.00" from="HunSt_2_1" to="GowSt_1_3" type="bicycle_bicycle"/>
    <trip id="bicycle87" depart="763.00" from="GowSt_2_1" to="TorPl_2_5" type="bicycle_bicycle"/>
    <trip id="bicycle88" depart="770.00" from="TorPl_1_1" to="GorSq_2_3" type="bicycle_bicycle"/>
    <trip id="bicycle89" depart="797.00" from="CheMe_1_1" to="GorSq_2_3" type="bicycle_bicycle"/>
    <trip id="bicycle90" depart="800.00" from="TorPl_1_1" to="GowSt_2_3" type="bicycle_bicycle"/>
    <trip id="bicycle91" depart="805.00" from="CheMe_1_1" to="GowSt_1_3" type="bicycle_bicycle"/>
    <trip id="bicycle92" depart="812.00" from="MalSt_2_1" to="TorPl_2_5" type="bicycle_bicycle"/>
    <trip id="bicycle93" depart="819.00" from="GowSt_1_1" to="HunSt_1_2" type="bicycle_bicycle"/>
    <trip id="bicycle94" depart="820.00" from="HunSt_1_1" to="GowSt_2_3" type="bicycle_bicycle"/>
    <trip id="bicycle95" depart="831.00" from="GowSt_1_1" to="GorSq_2_3" type="bicycle_bicycle"/>
    <trip id="bicycle96" depart="864.00" from="GowSt_1_1" to="GowSt_1_3" type="bicycle_bicycle"/>
    <trip id="bicycle97" depart="886.00" from="GorSq_2_1" to="GorSq_1_3" type="bicycle_bicycle"/>
    <trip id="bicycle98" depart="887.00" from="GorSq_1_1" to="GorSq_1_3" type="bicycle_bicycle"/>
    <trip id="bicycle99" depart="913.00" from="GorSq_1_1" to="GorSq_2_3" type="bicycle_bicycle"/>
    <trip id="bicycle100" depart="925.00" from="HunSt_2_1" to="MalSt_1_1" type="bicycle_bicycle"/>
    <trip id="bicycle101" depart="933.00" from="GowSt_2_1" to="MalSt_1_1" type="bicycle_bicycle"/>
    <trip id="bicycle102" depart="934.00" from="CheMe_1_1" to="GowSt_1_3" type="bicycle_bicycle"/>
    <trip id="bicycle103" depart="953.00" from="HunSt_2_1" to="GorSq_2_3" type="bicycle_bicycle"/>
    <trip id="bicycle104" depart="954.00" from="TorPl_1_1" to="GorSq_2_3" type="bicycle_bicycle"/>
    <trip id="bicycle105" depart="970.00" from="RidGa_2_1" to="TorPl_2_5" type="bicycle_bicycle"/>
    <trip id="bicycle106" depart="981.00" from="HunSt_2_1" to="MalSt_1_1" type="bicycle_bicycle"/>
    <trip id="bicycle107" depart="983.00" from="GowSt_1_1" to="HunSt_1_2" type="bicycle_bicycle"/>
    <trip id="bicycle108" depart="989.00" from="HunSt_2_1" to="GowSt_1_3" type="bicycle_bicycle"/>
    <trip id="bicycle109" depart="1000.00" from="HunSt_1_1" to="GowSt_1_3" type="bicycle_bicycle"/>
    <trip id="bicycle110" depart="1015.00" from="CheMe_1_1" to="MalSt_1_1" type="bicycle_bicycle"/>
    <trip id="bicycle111" depart="1021.00" from="CheMe_1_1" to="GorSq_2_3" type="bicycle_bicycle"/>
    <trip id="bicycle112" depart="1022.00" from="GorSq_2_1" to="MalSt_1_1" type="bicycle_bicycle"/>
    <trip id="bicycle113" depart="1025.00" from="GowSt_1_1" to="GowSt_2_3" type="bicycle_bicycle"/>
    <trip id="bicycle114" depart="1031.00" from="HunSt_2_1" to="HunSt_1_2" type="bicycle_bicycle"/>
    <trip id="bicycle115" depart="1073.00" from="RidGa_2_1" to="TorPl_2_5" type="bicycle_bicycle"/>
    <trip id="bicycle116" depart="1076.00" from="HunSt_1_1" to="MalSt_1_1" type="bicycle_bicycle"/>
    <trip id="bicycle117" depart="1091.00" from="GorSq_2_1" to="GorSq_1_3" type="bicycle_bicycle"/>
    <trip id="bicycle118" depart="1119.00" from="TorPl_1_1" to="MalSt_1_1" type="bicycle_bicycle"/>
    <trip id="bicycle119" depart="1122.00" from="TorPl_1_1" to="GorSq_2_3" type="bicycle_bicycle"/>
    <trip id="bicycle120" depart="1124.00" from="GowSt_1_1" to="GowSt_1_3" type="bicycle_bicycle"/>
    <trip id="bicycle121" depart="1125.00" from="TorPl_1_1" to="GowSt_1_3" type="bicycle_bicycle"/>
    <trip id="bicycle122" depart="1137.00" from="RidGa_2_1" to="GorSq_2_3" type="bicycle_bicycle"/>
    <trip id="bicycle123" depart="1161.00" from="TorPl_1_1" to="HunSt_1_2" type="bicycle_bicycle"/>
    <trip id="bicycle124" depart="1161.00" from="CheMe_1_1" to="GorSq_2_3" type="bicycle_bicycle"/>
    <trip id="bicycle125" depart="1169.00" from="GowSt_1_1" to="HunSt_1_2" type="bicycle_bicycle"/>
    <trip id="bicycle126" depart="1183.00" from="RidGa_2_1" to="MalSt_1_1" type="bicycle_bicycle"/>
    <trip id="bicycle127" depart="1193.00" from="HunSt_1_1" to="GorSq_2_3" type="bicycle_bicycle"/>
    <trip id="bicycle128" depart="1215.00" from="GowSt_1_1" to="GowSt_1_3" type="bicycle_bicycle"/>
    <trip id="bicycle129" depart="1225.00" from="MalSt_2_1" to="TorPl_2_5" type="bicycle_bicycle"/>
    <trip id="bicycle130" depart="1241.00" from="TorPl_1_1" to="GorSq_2_3" type="bicycle_bicycle"/>
    <trip id="bicycle131" depart="1242.00" from="GowSt_1_1" to="MalSt_1_1" type="bicycle_bicycle"/>
    <trip id="bicycle132" depart="1242.00" from="GowSt_1_1" to="TorPl_2_5" type="bicycle_bicycle"/>
    <trip id="bicycle133" depart="1265.00" from="GorSq_2_1" to="TorPl_2_5" type="bicycle_bicycle"/>
    <trip id="bicycle134" depart="1268.00" from="RidGa_2_1" to="GorSq_1_3" type="bicycle_bicycle"/>
    <trip id="bicycle135" depart="1285.00" from="MalSt_2_1" to="MalSt_1_1" type="bicycle_bicycle"/>
    <trip id="bicycle136" depart="1290.00" from="GorSq_2_1" to="GowSt_2_3" type="bicycle_bicycle"/>
    <trip id="bicycle137" depart="1290.00" from="TorPl_1_1" to="HunSt_1_2" type="bicycle_bicycle"/>
    <trip id="bicycle138" depart="1296.00" from="MalSt_2_1" to="GorSq_2_3" type="bicycle_bicycle"/>
    <trip id="bicycle139" depart="1299.00" from="TorPl_1_1" to="GorSq_2_3" type="bicycle_bicycle"/>
    <trip id="bicycle140" depart="1307.00" from="HunSt_1_1" to="GorSq_2_3" type="bicycle_bicycle"/>
    <trip id="bicycle141" depart="1314.00" from="MalSt_2_1" to="GorSq_2_3" type="bicycle_bicycle"/>
    <trip id="bicycle142" depart="1320.00" from="CheMe_1_1" to="GowSt_1_3" type="bicycle_bicycle"/>
    <trip id="bicycle143" depart="1320.00" from="HunSt_2_1" to="GorSq_2_3" type="bicycle_bicycle"/>
    <trip id="bicycle144" depart="1321.00" from="GorSq_1_1" to="MalSt_1_1" type="bicycle_bicycle"/>
    <trip id="bicycle145" depart="1324.00" from="CheMe_1_1" to="HunSt_1_2" type="bicycle_bicycle"/>
    <trip id="bicycle146" depart="1327.00" from="HunSt_1_1" to="MalSt_1_1" type="bicycle_bicycle"/>
    <trip id="bicycle147" depart="1334.00" from="GorSq_2_1" to="HunSt_1_2" type="bicycle_bicycle"/>
    <trip id="bicycle148" depart="1339.00" from="GorSq_2_1" to="GowSt_2_3" type="bicycle_bicycle"/>
    <trip id="bicycle149" depart="1340.00" from="MalSt_2_1" to="GowSt_2_3" type="bicycle_bicycle"/>
    <trip id="bicycle150" depart="1341.00" from="CheMe_1_1" to="GowSt_2_3" type="bicycle_bicycle"/>
    <trip id="bicycle151" depart="1342.00" from="GowSt_1_1" to="GowSt_2_3" type="bicycle_bicycle"/>
    <trip id="bicycle152" depart="1356.00" from="RidGa_2_1" to="HunSt_1_2" type="bicycle_bicycle"/>
    <trip id="bicycle153" depart="1377.00" from="CheMe_1_1" to="GorSq_1_3" type="bicycle_bicycle"/>
    <trip id="bicycle154" depart="1379.00" from="GowSt_1_1" to="GowSt_2_3" type="bicycle_bicycle"/>
    <trip id="bicycle155" depart="1380.00" from="RidGa_2_1" to="MalSt_1_1" type="bicycle_bicycle"/>
    <trip id="bicycle156" depart="1384.00" from="HunSt_1_1" to="MalSt_1_1" type="bicycle_bicycle"/>
    <trip id="bicycle157" depart="1386.00" from="HunSt_1_1" to="MalSt_1_1" type="bicycle_bicycle"/>
    <trip id="bicycle158" depart="1390.00" from="GorSq_1_1" to="GorSq_1_3" type="bicycle_bicycle"/>
    <trip id="bicycle159" depart="1394.00" from="RidGa_2_1" to="GowSt_2_3" type="bicycle_bicycle"/>
    <trip id="bicycle160" depart="1396.00" from="HunSt_1_1" to="GorSq_1_3" type="bicycle_bicycle"/>
    <trip id="bicycle161" depart="1396.00" from="TorPl_1_1" to="GowSt_2_3" type="bicycle_bicycle"/>
    <trip id="bicycle162" depart="1402.00" from="GorSq_1_1" to="GorSq_1_3" type="bicycle_bicycle"/>
    <trip id="bicycle163" depart="1402.00" from="GowSt_2_1" to="TorPl_2_5" type="bicycle_bicycle"/>
    <trip id="bicycle164" depart="1402.00" from="MalSt_2_1" to="TorPl_2_5" type="bicycle_bicycle"/>
    <trip id="bicycle165" depart="1416.00" from="HunSt_1_1" to="GorSq_2_3" type="bicycle_bicycle"/>
    <trip id="bicycle166" depart="1425.00" from="TorPl_1_1" to="GorSq_2_3" type="bicycle_bicycle"/>
    <trip id="bicycle167" depart="1477.00" from="GorSq_1_1" to="MalSt_1_1" type="bicycle_bicycle"/>
    <trip id="bicycle168" depart="1487.00" from="RidGa_2_1" to="GowSt_2_3" type="bicycle_bicycle"/>
    <trip id="bicycle169" depart="1489.00" from="GorSq_1_1" to="GowSt_2_3" type="bicycle_bicycle"/>
    <trip id="bicycle170" depart="1502.00" from="MalSt_2_1" to="TorPl_2_5" type="bicycle_bicycle"/>
    <trip id="bicycle171" depart="1515.00" from="TorPl_1_1" to="GorSq_2_3" type="bicycle_bicycle"/>
    <trip id="bicycle172" depart="1516.00" from="CheMe_1_1" to="MalSt_1_1" type="bicycle_bicycle"/>
    <trip id="bicycle173" depart="1535.00" from="MalSt_2_1" to="GorSq_2_3" type="bicycle_bicycle"/>
    <trip id="bicycle174" depart="1542.00" from="MalSt_2_1" to="GowSt_1_3" type="bicycle_bicycle"/>
    <trip id="bicycle175" depart="1552.00" from="CheMe_1_1" to="HunSt_1_2" type="bicycle_bicycle"/>
    <trip id="bicycle176" depart="1563.00" from="HunSt_2_1" to="GorSq_1_3" type="bicycle_bicycle"/>
    <trip id="bicycle177" depart="1571.00" from="MalSt_2_1" to="TorPl_2_5" type="bicycle_bicycle"/>
    <trip id="bicycle178" depart="1577.00" from="GorSq_2_1" to="GorSq_1_3" type="bicycle_bicycle"/>
    <trip id="bicycle179" depart="1592.00" from="GorSq_1_1" to="GowSt_2_3" type="bicycle_bicycle"/>
    <trip id="bicycle180" depart="1596.00" from="GorSq_2_1" to="GowSt_2_3" type="bicycle_bicycle"/>
    <trip id="bicycle181" depart="1603.00" from="TorPl_1_1" to="MalSt_1_1" type="bicycle_bicycle"/>
    <trip id="bicycle182" depart="1607.00" from="MalSt_2_1" to="GowSt_2_3" type="bicycle_bicycle"/>
    <trip id="bicycle183" depart="1625.00" from="HunSt_1_1" to="HunSt_1_2" type="bicycle_bicycle"/>
    <trip id="bicycle184" depart="1648.00" from="HunSt_2_1" to="HunSt_1_2" type="bicycle_bicycle"/>
    <trip id="bicycle185" depart="1663.00" from="CheMe_1_1" to="TorPl_2_5" type="bicycle_bicycle"/>
    <trip id="bicycle186" depart="1687.00" from="CheMe_1_1" to="TorPl_2_5" type="bicycle_bicycle"/>
    <trip id="bicycle187" depart="1691.00" from="GowSt_1_1" to="GowSt_1_3" type="bicycle_bicycle"/>
    <trip id="bicycle188" depart="1693.00" from="GowSt_1_1" to="TorPl_2_5" type="bicycle_bicycle"/>
    <trip id="bicycle189" depart="1697.00" from="GorSq_1_1" to="GorSq_2_3" type="bicycle_bicycle"/>
    <trip id="bicycle190" depart="1706.00" from="HunSt_2_1" to="GowSt_1_3" type="bicycle_bicycle"/>
    <trip id="bicycle191" depart="1709.00" from="GowSt_1_1" to="GowSt_1_3" type="bicycle_bicycle"/>
    <trip id="bicycle192" depart="1712.00" from="HunSt_2_1" to="HunSt_1_2" type="bicycle_bicycle"/>
    <trip id="bicycle193" depart="1721.00" from="MalSt_2_1" to="HunSt_1_2" type="bicycle_bicycle"/>
    <trip id="bicycle194" depart="1723.00" from="TorPl_1_1" to="HunSt_1_2" type="bicycle_bicycle"/>
    <trip id="bicycle195" depart="1726.00" from="GowSt_2_1" to="HunSt_1_2" type="bicycle_bicycle"/>
    <trip id="bicycle196" depart="1741.00" from="RidGa_2_1" to="GowSt_1_3" type="bicycle_bicycle"/>
    <trip id="bicycle197" depart="1758.00" from="RidGa_2_1" to="GowSt_1_3" type="bicycle_bicycle"/>
    <trip id="bicycle198" depart="1760.00" from="HunSt_1_1" to="GowSt_2_3" type="bicycle_bicycle"/>
    <trip id="bicycle199" depart="1761.00" from="HunSt_2_1" to="HunSt_1_2" type="bicycle_bicycle"/>
    <trip id="bicycle200" depart="1767.00" from="GowSt_1_1" to="GorSq_2_3" type="bicycle_bicycle"/>
    <trip id="bicycle201" depart="1800.00" from="GorSq_2_1" to="GowSt_2_3" type="bicycle_bicycle"/>
    <trip id="bicycle202" depart="1806.00" from="TorPl_1_1" to="GowSt_2_3" type="bicycle_bicycle"/>
    <trip id="bicycle203" depart="1812.00" from="HunSt_2_1" to="GowSt_1_3" type="bicycle_bicycle"/>
    <trip id="bicycle204" depart="1822.00" from="GowSt_1_1" to="GorSq_1_3" type="bicycle_bicycle"/>
    <trip id="bicycle205" depart="1823.00" from="TorPl_1_1" to="TorPl_2_5" type="bicycle_bicycle"/>
    <trip id="bicycle206" depart="1831.00" from="HunSt_1_1" to="GorSq_2_3" type="bicycle_bicycle"/>
    <trip id="bicycle207" depart="1841.00" from="CheMe_1_1" to="HunSt_1_2" type="bicycle_bicycle"/>
    <trip id="bicycle208" depart="1878.00" from="GorSq_1_1" to="HunSt_1_2" type="bicycle_bicycle"/>
    <trip id="bicycle209" depart="1890.00" from="HunSt_2_1" to="GorSq_1_3" type="bicycle_bicycle"/>
    <trip id="bicycle210" depart="1896.00" from="GorSq_1_1" to="GorSq_1_3" type="bicycle_bicycle"/>
    <trip id="bicycle211" depart="1908.00" from="CheMe_1_1" to="HunSt_1_2" type="bicycle_bicycle"/>
    <trip id="bicycle212" depart="1918.00" from="GowSt_1_1" to="HunSt_1_2" type="bicycle_bicycle"/>
    <trip id="bicycle213" depart="1924.00" from="GorSq_2_1" to="GowSt_1_3" type="bicycle_bicycle"/>
    <trip id="bicycle214" depart="1936.00" from="GorSq_2_1" to="TorPl_2_5" type="bicycle_bicycle"/>
    <trip id="bicycle215" depart="1944.00" from="HunSt_2_1" to="GorSq_2_3" type="bicycle_bicycle"/>
    <trip id="bicycle216" depart="1949.00" from="GorSq_2_1" to="GowSt_2_3" type="bicycle_bicycle"/>
    <trip id="bicycle217" depart="1952.00" from="RidGa_2_1" to="GorSq_1_3" type="bicycle_bicycle"/>
    <trip id="bicycle218" depart="1974.00" from="HunSt_1_1" to="GorSq_2_3" type="bicycle_bicycle"/>
    <trip id="bicycle219" depart="1982.00" from="GowSt_2_1" to="GorSq_1_3" type="bicycle_bicycle"/>
    <trip id="bicycle220" depart="1983.00" from="GowSt_1_1" to="GorSq_2_3" type="bicycle_bicycle"/>
    <trip id="bicycle221" depart="1990.00" from="GowSt_1_1" to="TorPl_2_5" type="bicycle_bicycle"/>
    <trip id="bicycle222" depart="1993.00" from="MalSt_2_1" to="GorSq_1_3" type="bicycle_bicycle"/>
    <trip id="bicycle223" depart="1993.00" from="GowSt_1_1" to="GowSt_1_3" type="bicycle_bicycle"/>
    <trip id="bicycle224" depart="1997.00" from="GorSq_2_1" to="GowSt_2_3" type="bicycle_bicycle"/>
    <trip id="bicycle225" depart="2042.00" from="GorSq_1_1" to="GowSt_2_3" type="bicycle_bicycle"/>
    <trip id="bicycle226" depart="2043.00" from="MalSt_2_1" to="HunSt_1_2" type="bicycle_bicycle"/>
    <trip id="bicycle227" depart="2047.00" from="GorSq_2_1" to="MalSt_1_1" type="bicycle_bicycle"/>
    <trip id="bicycle228" depart="2061.00" from="GowSt_2_1" to="GorSq_1_3" type="bicycle_bicycle"/>
    <trip id="bicycle229" depart="2081.00" from="MalSt_2_1" to="HunSt_1_2" type="bicycle_bicycle"/>
    <trip id="bicycle230" depart="2091.00" from="GorSq_1_1" to="MalSt_1_1" type="bicycle_bicycle"/>
    <trip id="bicycle231" depart="2093.00" from="GowSt_2_1" to="GowSt_1_3" type="bicycle_bicycle"/>
    <trip id="bicycle232" depart="2094.00" from="MalSt_2_1" to="GorSq_2_3" type="bicycle_bicycle"/>
    <trip id="bicycle233" depart="2096.00" from="MalSt_2_1" to="MalSt_1_1" type="bicycle_bicycle"/>
    <trip id="bicycle234" depart="2098.00" from="HunSt_2_1" to="GowSt_2_3" type="bicycle_bicycle"/>
    <trip id="bicycle235" depart="2100.00" from="GorSq_2_1" to="GowSt_1_3" type="bicycle_bicycle"/>
    <trip id="bicycle236" depart="2110.00" from="GorSq_2_1" to="GorSq_2_3" type="bicycle_bicycle"/>
    <trip id="bicycle237" depart="2116.00" from="MalSt_2_1" to="TorPl_2_5" type="bicycle_bicycle"/>
    <trip id="bicycle238" depart="2116.00" from="GorSq_1_1" to="TorPl_2_5" type="bicycle_bicycle"/>
    <trip id="bicycle239" depart="2123.00" from="GorSq_1_1" to="GorSq_1_3" type="bicycle_bicycle"/>
    <trip id="bicycle240" depart="2128.00" from="HunSt_2_1" to="GorSq_1_3" type="bicycle_bicycle"/>
    <trip id="bicycle241" depart="2137.00" from="GorSq_1_1" to="GorSq_2_3" type="bicycle_bicycle"/>
    <trip id="bicycle242" depart="2146.00" from="HunSt_2_1" to="GowSt_1_3" type="bicycle_bicycle"/>
    <trip id="bicycle243" depart="2161.00" from="GowSt_1_1" to="HunSt_1_2" type="bicycle_bicycle"/>
    <trip id="bicycle244" depart="2162.00" from="RidGa_2_1" to="TorPl_2_5" type="bicycle_bicycle"/>
    <trip id="bicycle245" depart="2175.00" from="RidGa_2_1" to="TorPl_2_5" type="bicycle_bicycle"/>
    <trip id="bicycle246" depart="2179.00" from="GorSq_1_1" to="TorPl_2_5" type="bicycle_bicycle"/>
    <trip id="bicycle247" depart="2186.00" from="GowSt_2_1" to="TorPl_2_5" type="bicycle_bicycle"/>
    <trip id="bicycle248" depart="2210.00" from="MalSt_2_1" to="GowSt_1_3" type="bicycle_bicycle"/>
    <trip id="bicycle249" depart="2219.00" from="GorSq_1_1" to="MalSt_1_1" type="bicycle_bicycle"/>
    <trip id="bicycle250" depart="2222.00" from="MalSt_2_1" to="GorSq_2_3" type="bicycle_bicycle"/>
    <trip id="bicycle251" depart="2223.00" from="GorSq_1_1" to="HunSt_1_2" type="bicycle_bicycle"/>
    <trip id="bicycle252" depart="2223.00" from="TorPl_1_1" to="GorSq_1_3" type="bicycle_bicycle"/>
    <trip id="bicycle253" depart="2225.00" from="HunSt_1_1" to="GowSt_2_3" type="bicycle_bicycle"/>
    <trip id="bicycle254" depart="2226.00" from="GowSt_1_1" to="HunSt_1_2" type="bicycle_bicycle"/>
    <trip id="bicycle255" depart="2268.00" from="TorPl_1_1" to="GowSt_2_3" type="bicycle_bicycle"/>
    <trip id="bicycle256" depart="2317.00" from="CheMe_1_1" to="GorSq_2_3" type="bicycle_bicycle"/>
    <trip id="bicycle257" depart="2318.00" from="HunSt_1_1" to="MalSt_1_1" type="bicycle_bicycle"/>
    <trip id="bicycle258" depart="2331.00" from="MalSt_2_1" to="GowSt_1_3" type="bicycle_bicycle"/>
    <trip id="bicycle259" depart="2344.00" from="TorPl_1_1" to="GorSq_2_3" type="bicycle_bicycle"/>
    <trip id="bicycle260" depart="2351.00" from="CheMe_1_1" to="GorSq_1_3" type="bicycle_bicycle"/>
    <trip id="bicycle261" depart="2373.00" from="TorPl_1_1" to="GowSt_2_3" type="bicycle_bicycle"/>
    <trip id="bicycle262" depart="2374.00" from="GorSq_2_1" to="GowSt_2_3" type="bicycle_bicycle"/>
    <trip id="bicycle263" depart="2384.00" from="CheMe_1_1" to="GowSt_2_3" type="bicycle_bicycle"/>
    <trip id="bicycle264" depart="2407.00" from="GorSq_2_1" to="MalSt_1_1" type="bicycle_bicycle"/>
    <trip id="bicycle265" depart="2410.00" from="TorPl_1_1" to="GowSt_2_3" type="bicycle_bicycle"/>
    <trip id="bicycle266" depart="2416.00" from="HunSt_1_1" to="TorPl_2_5" type="bicycle_bicycle"/>
    <trip id="bicycle267" depart="2442.00" from="GorSq_2_1" to="MalSt_1_1" type="bicycle_bicycle"/>
    <trip id="bicycle268" depart="2443.00" from="CheMe_1_1" to="GorSq_1_3" type="bicycle_bicycle"/>
    <trip id="bicycle269" depart="2447.00" from="GorSq_1_1" to="GowSt_2_3" type="bicycle_bicycle"/>
    <trip id="bicycle270" depart="2452.00" from="GowSt_2_1" to="GowSt_1_3" type="bicycle_bicycle"/>
    <trip id="bicycle271" depart="2452.00" from="HunSt_2_1" to="GowSt_1_3" type="bicycle_bicycle"/>
    <trip id="bicycle272" depart="2474.00" from="GorSq_2_1" to="TorPl_2_5" type="bicycle_bicycle"/>
    <trip id="bicycle273" depart="2485.00" from="MalSt_2_1" to="MalSt_1_1" type="bicycle_bicycle"/>
    <trip id="bicycle274" depart="2489.00" from="GowSt_1_1" to="GowSt_1_3" type="bicycle_bicycle"/>
    <trip id="bicycle275" depart="2492.00" from="GowSt_1_1" to="GorSq_1_3" type="bicycle_bicycle"/>
    <trip id="bicycle276" depart="2492.00" from="HunSt_1_1" to="GowSt_1_3" type="bicycle_bicycle"/>
    <trip id="bicycle277" depart="2497.00" from="MalSt_2_1" to="GorSq_1_3" type="bicycle_bicycle"/>
    <trip id="bicycle278" depart="2503.00" from="MalSt_2_1" to="GowSt_1_3" type="bicycle_bicycle"/>
    <trip id="bicycle279" depart="2510.00" from="HunSt_1_1" to="GowSt_1_3" type="bicycle_bicycle"/>
    <trip id="bicycle280" depart="2532.00" from="GorSq_2_1" to="TorPl_2_5" type="bicycle_bicycle"/>
    <trip id="bicycle281" depart="2547.00" from="MalSt_2_1" to="GorSq_2_3" type="bicycle_bicycle"/>
    <trip id="bicycle282" depart="2565.00" from="GorSq_1_1" to="TorPl_2_5" type="bicycle_bicycle"/>
    <trip id="bicycle283" depart="2568.00" from="GowSt_1_1" to="HunSt_1_2" type="bicycle_bicycle"/>
    <trip id="bicycle284" depart="2588.00" from="GorSq_1_1" to="HunSt_1_2" type="bicycle_bicycle"/>
    <trip id="bicycle285" depart="2598.00" from="TorPl_1_1" to="GorSq_2_3" type="bicycle_bicycle"/>
    <trip id="bicycle286" depart="2619.00" from="HunSt_2_1" to="TorPl_2_5" type="bicycle_bicycle"/>
    <trip id="bicycle287" depart="2621.00" from="TorPl_1_1" to="GorSq_1_3" type="bicycle_bicycle"/>
    <trip id="bicycle288" depart="2625.00" from="HunSt_2_1" to="TorPl_2_5" type="bicycle_bicycle"/>
    <trip id="bicycle289" depart="2637.00" from="GowSt_2_1" to="GorSq_1_3" type="bicycle_bicycle"/>
    <trip id="bicycle290" depart="2639.00" from="HunSt_2_1" to="GowSt_2_3" type="bicycle_bicycle"/>
    <trip id="bicycle291" depart="2642.00" from="HunSt_2_1" to="GorSq_2_3" type="bicycle_bicycle"/>