<?xml version="1.0" encoding="UTF-8"?>

<!-- generated on 2025-11-16 23:00:55.118276 by randomTrips.py v1_24_0+0000-b72eb3fabc8
<configuration>
    <net-file value="../networks/demo/main.net.xml"/>
    <output-trip-file value="../routes/demo/bicycle.trips.xml"/>
    <route-file value="../routes/demo/bicycle.rou.xml"/>
    <prefix value="bicycle"/>
    <vehicle-class value="bicycle"/>
    <random-factor value="2.5999775838840518"/>
    <fringe-factor value="max"/>
    <seed value="46"/>
    <period value="2.8571771679364364"/>
    <binomial value="100"/>
</configuration>
-->

<routes xmlns:xsi="http://www.w3.org/2001/XMLSchema-instance" xsi:noNamespaceSchemaLocation="http://sumo.dlr.de/xsd/routes_file.xsd">
    <vType id="bicycle_bicycle" vClass="bicycle"/>
    <trip id="bicycle0" depart="0.00" from="HunSt_2_1" to="MalSt_1_1" type="bicycle_bicycle"/>
    <trip id="bicycle1" depart="0.00" from="GorSq_2_1" to="MalSt_1_1" type="bicycle_bicycle"/>
    <trip id="bicycle2" depart="3.00" from="HunSt_2_1" to="GowSt_1_2" type="bicycle_bicycle"/>
    <trip id="bicycle3" depart="3.00" from="CheMe_1_1" to="MalSt_1_1" type="bicycle_bicycle"/>
    <trip id="bicycle4" depart="13.00" from="GowSt_1_1" to="GorSq_2_3" type="bicycle_bicycle"/>
    <trip id="bicycle5" depart="17.00" from="GorSq_1_1" to="GowSt_2_2" type="bicycle_bicycle"/>
    <trip id="bicycle6" depart="22.00" from="HunSt_2_1" to="GowSt_1_2" type="bicycle_bicycle"/>
    <trip id="bicycle7" depart="25.00" from="MalSt_2_1" to="GorSq_1_3" type="bicycle_bicycle"/>
    <trip id="bicycle8" depart="27.00" from="MalSt_2_1" to="TorPl_2_4" type="bicycle_bicycle"/>
    <trip id="bicycle9" depart="36.00" from="GowSt_1_1" to="MalSt_1_1" type="bicycle_bicycle"/>
    <trip id="bicycle10" depart="36.00" from="CheMe_1_1" to="GowSt_1_2" type="bicycle_bicycle"/>
    <trip id="bicycle11" depart="37.00" from="GorSq_2_1" to="GorSq_1_3" type="bicycle_bicycle"/>
    <trip id="bicycle12" depart="41.00" from="GowSt_2_1" to="GorSq_1_3" type="bicycle_bicycle"/>
    <trip id="bicycle13" depart="47.00" from="CheMe_1_1" to="GorSq_2_3" type="bicycle_bicycle"/>
    <trip id="bicycle14" depart="52.00" from="GorSq_2_1" to="TorPl_2_4" type="bicycle_bicycle"/>
    <trip id="bicycle15" depart="52.00" from="HunSt_2_1" to="GowSt_1_2" type="bicycle_bicycle"/>
    <trip id="bicycle16" depart="54.00" from="TorPl_1_1" to="GowSt_2_2" type="bicycle_bicycle"/>
    <trip id="bicycle17" depart="60.00" from="GorSq_1_1" to="HunSt_1_2" type="bicycle_bicycle"/>
    <trip id="bicycle18" depart="62.00" from="GowSt_1_1" to="GorSq_2_3" type="bicycle_bicycle"/>
    <trip id="bicycle19" depart="64.00" from="HunSt_1_1" to="GowSt_2_2" type="bicycle_bicycle"/>
    <trip id="bicycle20" depart="72.00" from="MalSt_2_1" to="TorPl_2_4" type="bicycle_bicycle"/>
    <trip id="bicycle21" depart="73.00" from="CheMe_1_1" to="GowSt_1_2" type="bicycle_bicycle"/>
    <trip id="bicycle22" depart="79.00" from="MalSt_2_1" to="GorSq_1_3" type="bicycle_bicycle"/>
    <trip id="bicycle23" depart="84.00" from="HunSt_1_1" to="GorSq_2_3" type="bicycle_bicycle"/>
    <trip id="bicycle24" depart="88.00" from="GowSt_1_1" to="MalSt_1_1" type="bicycle_bicycle"/>
    <trip id="bicycle25" depart="91.00" from="GowSt_2_1" to="GorSq_2_3" type="bicycle_bicycle"/>
    <trip id="bicycle26" depart="96.00" from="GowSt_1_1" to="MalSt_1_1" type="bicycle_bicycle"/>
    <trip id="bicycle27" depart="97.00" from="GorSq_1_1" to="GorSq_2_3" type="bicycle_bicycle"/>
    <trip id="bicycle28" depart="100.00" from="MalSt_2_1" to="GorSq_2_3" type="bicycle_bicycle"/>
    <trip id="bicycle29" depart="107.00" from="HunSt_1_1" to="GorSq_1_3" type="bicycle_bicycle"/>
    <trip id="bicycle30" depart="109.00" from="GowSt_1_1" to="GowSt_1_2" type="bicycle_bicycle"/>
    <trip id="bicycle31" depart="112.00" from="RidGa_2_1" to="MalSt_1_1" type="bicycle_bicycle"/>
    <trip id="bicycle32" depart="114.00" from="RidGa_2_1" to="HunSt_1_2" type="bicycle_bicycle"/>
    <trip id="bicycle33" depart="116.00" from="HunSt_2_1" to="HunSt_1_2" type="bicycle_bicycle"/>
    <trip id="bicycle34" depart="118.00" from="RidGa_2_1" to="GorSq_2_3" type="bicycle_bicycle"/>
    <trip id="bicycle35" depart="124.00" from="HunSt_1_1" to="GorSq_2_3" type="bicycle_bicycle"/>
    <trip id="bicycle36" depart="133.00" from="CheMe_1_1" to="HunSt_1_2" type="bicycle_bicycle"/>
    <trip id="bicycle37" depart="138.00" from="GowSt_2_1" to="TorPl_2_4" type="bicycle_bicycle"/>
    <trip id="bicycle38" depart="139.00" from="GorSq_2_1" to="MalSt_1_1" type="bicycle_bicycle"/>
    <trip id="bicycle39" depart="143.00" from="RidGa_2_1" to="GowSt_2_2" type="bicycle_bicycle"/>
    <trip id="bicycle40" depart="146.00" from="CheMe_1_1" to="GowSt_1_2" type="bicycle_bicycle"/>
    <trip id="bicycle41" depart="146.00" from="GowSt_2_1" to="HunSt_1_2" type="bicycle_bicycle"/>
    <trip id="bicycle42" depart="155.00" from="GorSq_1_1" to="GorSq_2_3" type="bicycle_bicycle"/>
    <trip id="bicycle43" depart="158.00" from="CheMe_1_1" to="TorPl_2_4" type="bicycle_bicycle"/>
    <trip id="bicycle44" depart="165.00" from="GorSq_2_1" to="GowSt_2_2" type="bicycle_bicycle"/>
    <trip id="bicycle45" depart="169.00" from="HunSt_1_1" to="GowSt_1_2" type="bicycle_bicycle"/>
    <trip id="bicycle46" depart="174.00" from="TorPl_1_1" to="MalSt_1_1" type="bicycle_bicycle"/>
    <trip id="bicycle47" depart="175.00" from="HunSt_2_1" to="GorSq_1_3" type="bicycle_bicycle"/>
    <trip id="bicycle48" depart="178.00" from="GorSq_1_1" to="GowSt_1_2" type="bicycle_bicycle"/>
    <trip id="bicycle49" depart="184.00" from="HunSt_1_1" to="HunSt_1_2" type="bicycle_bicycle"/>
    <trip id="bicycle50" depart="186.00" from="HunSt_1_1" to="MalSt_1_1" type="bicycle_bicycle"/>
    <trip id="bicycle51" depart="187.00" from="GorSq_2_1" to="GorSq_2_3" type="bicycle_bicycle"/>
    <trip id="bicycle52" depart="188.00" from="HunSt_1_1" to="GorSq_1_3" type="bicycle_bicycle"/>
    <trip id="bicycle53" depart="188.00" from="RidGa_2_1" to="GorSq_1_3" type="bicycle_bicycle"/>
    <trip id="bicycle54" depart="189.00" from="GowSt_1_1" to="GorSq_2_3" type="bicycle_bicycle"/>
    <trip id="bicycle55" depart="197.00" from="HunSt_2_1" to="GorSq_1_3" type="bicycle_bicycle"/>
    <trip id="bicycle56" depart="197.00" from="GowSt_1_1" to="MalSt_1_1" type="bicycle_bicycle"/>
    <trip id="bicycle57" depart="197.00" from="GowSt_2_1" to="GowSt_1_2" type="bicycle_bicycle"/>
    <trip id="bicycle58" depart="199.00" from="RidGa_2_1" to="GorSq_1_3" type="bicycle_bicycle"/>
    <trip id="bicycle59" depart="201.00" from="RidGa_2_1" to="GorSq_2_3" type="bicycle_bicycle"/>
    <trip id="bicycle60" depart="204.00" from="HunSt_2_1" to="GowSt_1_2" type="bicycle_bicycle"/>
    <trip id="bicycle61" depart="208.00" from="GowSt_1_1" to="MalSt_1_1" type="bicycle_bicycle"/>
    <trip id="bicycle62" depart="209.00" from="GorSq_1_1" to="TorPl_2_4" type="bicycle_bicycle"/>
    <trip id="bicycle63" depart="217.00" from="MalSt_2_1" to="MalSt_1_1" type="bicycle_bicycle"/>
    <trip id="bicycle64" depart="225.00" from="RidGa_2_1" to="HunSt_1_2" type="bicycle_bicycle"/>
    <trip id="bicycle65" depart="227.00" from="HunSt_2_1" to="GorSq_1_3" type="bicycle_bicycle"/>
    <trip id="bicycle66" depart="232.00" from="HunSt_2_1" to="GorSq_1_3" type="bicycle_bicycle"/>
    <trip id="bicycle67" depart="232.00" from="TorPl_1_1" to="GorSq_2_3" type="bicycle_bicycle"/>
    <trip id="bicycle68" depart="236.00" from="TorPl_1_1" to="GowSt_1_2" type="bicycle_bicycle"/>
    <trip id="bicycle69" depart="240.00" from="HunSt_2_1" to="GowSt_1_2" type="bicycle_bicycle"/>
    <trip id="bicycle70" depart="243.00" from="GorSq_2_1" to="TorPl_2_4" type="bicycle_bicycle"/>
    <trip id="bicycle71" depart="244.00" from="HunSt_2_1" to="HunSt_1_2" type="bicycle_bicycle"/>
    <trip id="bicycle72" depart="246.00" from="HunSt_1_1" to="GowSt_1_2" type="bicycle_bicycle"/>
    <trip id="bicycle73" depart="247.00" from="GorSq_2_1" to="MalSt_1_1" type="bicycle_bicycle"/>
    <trip id="bicycle74" depart="248.00" from="GorSq_2_1" to="MalSt_1_1" type="bicycle_bicycle"/>
    <trip id="bicycle75" depart="248.00" from="GowSt_2_1" to="MalSt_1_1" type="bicycle_bicycle"/>
    <trip id="bicycle76" depart="249.00" from="RidGa_2_1" to="MalSt_1_1" type="bicycle_bicycle"/>
    <trip id="bicycle77" depart="251.00" from="MalSt_2_1" to="GowSt_1_2" type="bicycle_bicycle"/>
    <trip id="bicycle78" depart="253.00" from="GorSq_2_1" to="GorSq_2_3" type="bicycle_bicycle"/>
    <trip id="bicycle79" depart="255.00" from="GorSq_1_1" to="TorPl_2_4" type="bicycle_bicycle"/>
    <trip id="bicycle80" depart="257.00" from="GowSt_2_1" to="GowSt_1_2" type="bicycle_bicycle"/>
    <trip id="bicycle81" depart="259.00" from="GorSq_1_1" to="TorPl_2_4" type="bicycle_bicycle"/>
    <trip id="bicycle82" depart="262.00" from="GorSq_1_1" to="HunSt_1_2" type="bicycle_bicycle"/>
    <trip id="bicycle83" depart="265.00" from="RidGa_2_1" to="GowSt_1_2" type="bicycle_bicycle"/>
    <trip id="bicycle84" depart="267.00" from="GowSt_2_1" to="GorSq_1_3" type="bicycle_bicycle"/>
    <trip id="bicycle85" depart="270.00" from="TorPl_1_1" to="GowSt_1_2" type="bicycle_bicycle"/>
    <trip id="bicycle86" depart="270.00" from="GowSt_1_1" to="TorPl_2_4" type="bicycle_bicycle"/>
    <trip id="bicycle87" depart="271.00" from="TorPl_1_1" to="MalSt_1_1" type="bicycle_bicycle"/>
    <trip id="bicycle88" depart="272.00" from="GowSt_2_1" to="GowSt_2_2" type="bicycle_bicycle"/>
    <trip id="bicycle89" depart="282.00" from="HunSt_2_1" to="MalSt_1_1" type="bicycle_bicycle"/>
    <trip id="bicycle90" depart="284.00" from="HunSt_1_1" to="GorSq_1_3" type="bicycle_bicycle"/>
    <trip id="bicycle91" depart="285.00" from="RidGa_2_1" to="TorPl_2_4" type="bicycle_bicycle"/>
    <trip id="bicycle92" depart="291.00" from="TorPl_1_1" to="MalSt_1_1" type="bicycle_bicycle"/>
    <trip id="bicycle93" depart="292.00" from="GorSq_1_1" to="GorSq_1_3" type="bicycle_bicycle"/>
    <trip id="bicycle94" depart="294.00" from="CheMe_1_1" to="MalSt_1_1" type="bicycle_bicycle"/>
    <trip id="bicycle95" depart="299.00" from="CheMe_1_1" to="MalSt_1_1" type="bicycle_bicycle"/>
    <trip id="bicycle96" depart="306.00" from="RidGa_2_1" to="TorPl_2_4" type="bicycle_bicycle"/>
    <trip id="bicycle97" depart="323.00" from="GowSt_1_1" to="GowSt_2_2" type="bicycle_bicycle"/>
    <trip id="bicycle98" depart="325.00" from="TorPl_1_1" to="GowSt_2_2" type="bicycle_bicycle"/>
    <trip id="bicycle99" depart="326.00" from="GorSq_1_1" to="GowSt_1_2" type="bicycle_bicycle"/>
    <trip id="bicycle100" depart="327.00" from="TorPl_1_1" to="GowSt_1_2" type="bicycle_bicycle"/>
    <trip id="bicycle101" depart="328.00" from="GorSq_1_1" to="MalSt_1_1" type="bicycle_bicycle"/>
    <trip id="bicycle102" depart="332.00" from="GowSt_1_1" to="GowSt_1_2" type="bicycle_bicycle"/>
    <trip id="bicycle103" depart="338.00" from="GowSt_2_1" to="GorSq_2_3" type="bicycle_bicycle"/>
    <trip id="bicycle104" depart="340.00" from="TorPl_1_1" to="HunSt_1_2" type="bicycle_bicycle"/>
    <trip id="bicycle105" depart="344.00" from="MalSt_2_1" to="MalSt_1_1" type="bicycle_bicycle"/>
    <trip id="bicycle106" depart="350.00" from="CheMe_1_1" to="GowSt_1_2" type="bicycle_bicycle"/>
    <trip id="bicycle107" depart="355.00" from="TorPl_1_1" to="GorSq_2_3" type="bicycle_bicycle"/>
    <trip id="bicycle108" depart="357.00" from="GowSt_1_1" to="GowSt_2_2" type="bicycle_bicycle"/>
    <trip id="bicycle109" depart="363.00" from="MalSt_2_1" to="GorSq_2_3" type="bicycle_bicycle"/>
    <trip id="bicycle110" depart="373.00" from="GowSt_2_1" to="GorSq_1_3" type="bicycle_bicycle"/>
    <trip id="bicycle111" depart="377.00" from="GowSt_1_1" to="GorSq_2_3" type="bicycle_bicycle"/>
    <trip id="bicycle112" depart="382.00" from="CheMe_1_1" to="GowSt_1_2" type="bicycle_bicycle"/>
    <trip id="bicycle113" depart="389.00" from="GowSt_2_1" to="GowSt_1_2" type="bicycle_bicycle"/>
    <trip id="bicycle114" depart="390.00" from="GowSt_2_1" to="MalSt_1_1" type="bicycle_bicycle"/>
    <trip id="bicycle115" depart="390.00" from="CheMe_1_1" to="GowSt_2_2" type="bicycle_bicycle"/>
    <trip id="bicycle116" depart="392.00" from="TorPl_1_1" to="GorSq_1_3" type="bicycle_bicycle"/>
    <trip id="bicycle117" depart="392.00" from="TorPl_1_1" to="GowSt_1_2" type="bicycle_bicycle"/>
    <trip id="bicycle118" depart="395.00" from="RidGa_2_1" to="GowSt_2_2" type="bicycle_bicycle"/>
    <trip id="bicycle119" depart="400.00" from="GowSt_1_1" to="GowSt_2_2" type="bicycle_bicycle"/>
    <trip id="bicycle120" depart="401.00" from="TorPl_1_1" to="TorPl_2_4" type="bicycle_bicycle"/>
    <trip id="bicycle121" depart="402.00" from="GowSt_1_1" to="TorPl_2_4" type="bicycle_bicycle"/>
    <trip id="bicycle122" depart="404.00" from="GorSq_2_1" to="GorSq_2_3" type="bicycle_bicycle"/>
    <trip id="bicycle123" depart="407.00" from="GowSt_1_1" to="GorSq_1_3" type="bicycle_bicycle"/>
    <trip id="bicycle124" depart="413.00" from="GorSq_2_1" to="TorPl_2_4" type="bicycle_bicycle"/>
    <trip id="bicycle125" depart="415.00" from="RidGa_2_1" to="TorPl_2_4" type="bicycle_bicycle"/>
    <trip id="bicycle126" depart="418.00" from="TorPl_1_1" to="GorSq_2_3" type="bicycle_bicycle"/>
    <trip id="bicycle127" depart="421.00" from="MalSt_2_1" to="GorSq_1_3" type="bicycle_bicycle"/>
    <trip id="bicycle128" depart="423.00" from="GowSt_2_1" to="GorSq_2_3" type="bicycle_bicycle"/>
    <trip id="bicycle129" depart="424.00" from="GorSq_2_1" to="HunSt_1_2" type="bicycle_bicycle"/>
    <trip id="bicycle130" depart="425.00" from="HunSt_1_1" to="MalSt_1_1" type="bicycle_bicycle"/>
    <trip id="bicycle131" depart="429.00" from="GowSt_1_1" to="GowSt_1_2" type="bicycle_bicycle"/>
    <trip id="bicycle132" depart="434.00" from="GowSt_2_1" to="GorSq_1_3" type="bicycle_bicycle"/>
    <trip id="bicycle133" depart="444.00" from="TorPl_1_1" to="MalSt_1_1" type="bicycle_bicycle"/>
    <trip id="bicycle134" depart="444.00" from="GowSt_2_1" to="GorSq_2_3" type="bicycle_bicycle"/>
    <trip id="bicycle135" depart="455.00" from="GowSt_1_1" to="MalSt_1_1" type="bicycle_bicycle"/>
    <trip id="bicycle136" depart="460.00" from="HunSt_2_1" to="TorPl_2_4" type="bicycle_bicycle"/>
    <trip id="bicycle137" depart="463.00" from="MalSt_2_1" to="HunSt_1_2" type="bicycle_bicycle"/>
    <trip id="bicycle138" depart="467.00" from="GowSt_2_1" to="GowSt_2_2" type="bicycle_bicycle"/>
    <trip id="bicycle139" depart="468.00" from="GorSq_1_1" to="MalSt_1_1" type="bicycle_bicycle"/>
    <trip id="bicycle140" depart="469.00" from="HunSt_1_1" to="GorSq_2_3" type="bicycle_bicycle"/>
    <trip id="bicycle141" depart="474.00" from="TorPl_1_1" to="GowSt_1_2" type="bicycle_bicycle"/>
    <trip id="bicycle142" depart="476.00" from="GowSt_2_1" to="GorSq_1_3" type="bicycle_bicycle"/>
    <trip id="bicycle143" depart="476.00" from="GorSq_2_1" to="GorSq_1_3" type="bicycle_bicycle"/>
    <trip id="bicycle144" depart="479.00" from="TorPl_1_1" to="GorSq_2_3" type="bicycle_bicycle"/>
    <trip id="bicycle145" depart="480.00" from="GorSq_2_1" to="GowSt_1_2" type="bicycle_bicycle"/>
    <trip id="bicycle146" depart="481.00" from="HunSt_2_1" to="GowSt_2_2" type="bicycle_bicycle"/>
    <trip id="bicycle147" depart="481.00" from="GorSq_1_1" to="GorSq_1_3" type="bicycle_bicycle"/>
    <trip id="bicycle148" depart="482.00" from="GowSt_1_1" to="HunSt_1_2" type="bicycle_bicycle"/>
    <trip id="bicycle149" depart="484.00" from="MalSt_2_1" to="GowSt_2_2" type="bicycle_bicycle"/>
    <trip id="bicycle150" depart="487.00" from="GowSt_2_1" to="GowSt_2_2" type="bicycle_bicycle"/>
    <trip id="bicycle151" depart="493.00" from="MalSt_2_1" to="GorSq_2_3" type="bicycle_bicycle"/>
    <trip id="bicycle152" depart="496.00" from="GowSt_1_1" to="TorPl_2_4" type="bicycle_bicycle"/>
    <trip id="bicycle153" depart="497.00" from="GowSt_2_1" to="TorPl_2_4" type="bicycle_bicycle"/>
    <trip id="bicycle154" depart="499.00" from="GowSt_1_1" to="TorPl_2_4" type="bicycle_bicycle"/>
    <trip id="bicycle155" depart="500.00" from="GowSt_1_1" to="MalSt_1_1" type="bicycle_bicycle"/>
    <trip id="bicycle156" depart="503.00" from="GowSt_2_1" to="TorPl_2_4" type="bicycle_bicycle"/>
    <trip id="bicycle157" depart="508.00" from="GowSt_1_1" to="MalSt_1_1" type="bicycle_bicycle"/>
    <trip id="bicycle158" depart="510.00" from="HunSt_2_1" to="GorSq_1_3" type="bicycle_bicycle"/>
    <trip id="bicycle159" depart="519.00" from="HunSt_1_1" to="TorPl_2_4" type="bicycle_bicycle"/>
    <trip id="bicycle160" depart="522.00" from="TorPl_1_1" to="MalSt_1_1" type="bicycle_bicycle"/>
    <trip id="bicycle161" depart="526.00" from="GorSq_1_1" to="HunSt_1_2" type="bicycle_bicycle"/>
    <trip id="bicycle162" depart="534.00" from="MalSt_2_1" to="TorPl_2_4" type="bicycle_bicycle"/>
    <trip id="bicycle163" depart="536.00" from="TorPl_1_1" to="GorSq_2_3" type="bicycle_bicycle"/>
    <trip id="bicycle164" depart="536.00" from="GorSq_2_1" to="TorPl_2_4" type="bicycle_bicycle"/>
    <trip id="bicycle165" depart="537.00" from="GowSt_2_1" to="GowSt_1_2" type="bicycle_bicycle"/>
    <trip id="bicycle166" depart="543.00" from="GorSq_2_1" to="GorSq_2_3" type="bicycle_bicycle"/>
    <trip id="bicycle167" depart="543.00" from="GowSt_1_1" to="GorSq_1_3" type="bicycle_bicycle"/>
    <trip id="bicycle168" depart="547.00" from="GorSq_2_1" to="TorPl_2_4" type="bicycle_bicycle"/>
    <trip id="bicycle169" depart="548.00" from="TorPl_1_1" to="GowSt_1_2" type="bicycle_bicycle"/>
    <trip id="bicycle170" depart="552.00" from="HunSt_1_1" to="GorSq_2_3" type="bicycle_bicycle"/>
    <trip id="bicycle171" depart="553.00" from="GowSt_2_1" to="GowSt_2_2" type="bicycle_bicycle"/>
    <trip id="bicycle172" depart="556.00" from="GorSq_2_1" to="GowSt_2_2" type="bicycle_bicycle"/>
    <trip id="bicycle173" depart="561.00" from="HunSt_1_1" to="GorSq_1_3" type="bicycle_bicycle"/>
    <trip id="bicycle174" depart="562.00" from="TorPl_1_1" to="GorSq_1_3" type="bicycle_bicycle"/>
    <trip id="bicycle175" depart="564.00" from="GowSt_1_1" to="GowSt_1_2" type="bicycle_bicycle"/>
    <trip id="bicycle176" depart="564.00" from="MalSt_2_1" to="GowSt_2_2" type="bicycle_bicycle"/>
    <trip id="bicycle177" depart="567.00" from="GorSq_2_1" to="TorPl_2_4" type="bicycle_bicycle"/>
    <trip id="bicycle178" depart="568.00" from="GowSt_2_1" to="TorPl_2_4" type="bicycle_bicycle"/>
    <trip id="bicycle179" depart="573.00" from="GowSt_2_1" to="GorSq_1_3" type="bicycle_bicycle"/>
    <trip id="bicycle180" depart="573.00" from="HunSt_2_1" to="MalSt_1_1" type="bicycle_bicycle"/>
    <trip id="bicycle181" depart="575.00" from="RidGa_2_1" to="MalSt_1_1" type="bicycle_bicycle"/>
    <trip id="bicycle182" depart="577.00" from="RidGa_2_1" to="TorPl_2_4" type="bicycle_bicycle"/>
    <trip id="bicycle183" depart="578.00" from="GorSq_1_1" to="TorPl_2_4" type="bicycle_bicycle"/>
    <trip id="bicycle184" depart="581.00" from="GowSt_2_1" to="GorSq_2_3" type="bicycle_bicycle"/>
    <trip id="bicycle185" depart="582.00" from="HunSt_1_1" to="TorPl_2_4" type="bicycle_bicycle"/>
    <trip id="bicycle186" depart="584.00" from="TorPl_1_1" to="GorSq_1_3" type="bicycle_bicycle"/>
    <trip id="bicycle187" depart="585.00" from="GowSt_2_1" to="GorSq_2_3" type="bicycle_bicycle"/>
    <trip id="bicycle188" depart="588.00" from="GorSq_2_1" to="GowSt_2_2" type="bicycle_bicycle"/>
    <trip id="bicycle189" depart="589.00" from="MalSt_2_1" to="GorSq_1_3" type="bicycle_bicycle"/>
    <trip id="bicycle190" depart="604.00" from="MalSt_2_1" to="GorSq_2_3" type="bicycle_bicycle"/>
    <trip id="bicycle191" depart="607.00" from="HunSt_2_1" to="GowSt_2_2" type="bicycle_bicycle"/>
    <trip id="bicycle192" depart="610.00" from="GowSt_2_1" to="MalSt_1_1" type="bicycle_bicycle"/>
    <trip id="bicycle193" depart="610.00" from="GowSt_1_1" to="GowSt_1_2" type="bicycle_bicycle"/>
    <trip id="bicycle194" depart="611.00" from="HunSt_1_1" to="TorPl_2_4" type="bicycle_bicycle"/>
    <trip id="bicycle195" depart="611.00" from="GorSq_2_1" to="HunSt_1_2" type="bicycle_bicycle"/>
    <trip id="bicycle196" depart="620.00" from="HunSt_1_1" to="GowSt_2_2" type="bicycle_bicycle"/>
    <trip id="bicycle197" depart="627.00" from="CheMe_1_1" to="TorPl_2_4" type="bicycle_bicycle"/>
    <trip id="bicycle198" depart="632.00" from="GowSt_1_1" to="GorSq_2_3" type="bicycle_bicycle"/>
    <trip id="bicycle199" depart="637.00" from="GowSt_1_1" to="GorSq_2_3" type="bicycle_bicycle"/>
    <trip id="bicycle200" depart="637.00" from="RidGa_2_1" to="GorSq_2_3" type="bicycle_bicycle"/>
    <trip id="bicycle201" depart="641.00" from="CheMe_1_1" to="GowSt_2_2" type="bicycle_bicycle"/>
    <trip id="bicycle202" depart="642.00" from="TorPl_1_1" to="GorSq_2_3" type="bicycle_bicycle"/>
    <trip id="bicycle203" depart="649.00" from="GowSt_1_1" to="MalSt_1_1" type="bicycle_bicycle"/>
    <trip id="bicycle204" depart="649.00" from="GowSt_2_1" to="MalSt_1_1" type="bicycle_bicycle"/>
    <trip id="bicycle205" depart="652.00" from="HunSt_1_1" to="TorPl_2_4" type="bicycle_bicycle"/>
    <trip id="bicycle206" depart="652.00" from="TorPl_1_1" to="MalSt_1_1" type="bicycle_bicycle"/>
    <trip id="bicycle207" depart="652.00" from="GorSq_1_1" to="GowSt_1_2" type="bicycle_bicycle"/>
    <trip id="bicycle208" depart="655.00" from="GorSq_1_1" to="GorSq_1_3" type="bicycle_bicycle"/>
    <trip id="bicycle209" depart="657.00" from="GorSq_2_1" to="GowSt_2_2" type="bicycle_bicycle"/>
    <trip id="bicycle210" depart="659.00" from="MalSt_2_1" to="GowSt_1_2" type="bicycle_bicycle"/>
    <trip id="bicycle211" depart="669.00" from="HunSt_2_1" to="GorSq_1_3" type="bicycle_bicycle"/>
    <trip id="bicycle212" depart="674.00" from="GowSt_2_1" to="GorSq_2_3" type="bicycle_bicycle"/>
    <trip id="bicycle213" depart="679.00" from="GowSt_1_1" to="GowSt_2_2" type="bicycle_bicycle"/>
    <trip id="bicycle214" depart="680.00" from="GowSt_1_1" to="HunSt_1_2" type="bicycle_bicycle"/>
    <trip id="bicycle215" depart="685.00" from="CheMe_1_1" to="GowSt_1_2" type="bicycle_bicycle"/>
    <trip id="bicycle216" depart="691.00" from="HunSt_2_1" to="GowSt_1_2" type="bicycle_bicycle"/>
    <trip id="bicycle217" depart="692.00" from="MalSt_2_1" to="MalSt_1_1" type="bicycle_bicycle"/>
    <trip id="bicycle218" depart="699.00" from="MalSt_2_1" to="GorSq_2_3" type="bicycle_bicycle"/>
    <trip id="bicycle219" depart="704.00" from="CheMe_1_1" to="HunSt_1_2" type="bicycle_bicycle"/>
    <trip id="bicycle220" depart="709.00" from="GowSt_1_1" to="GorSq_1_3" type="bicycle_bicycle"/>
    <trip id="bicycle221" depart="732.00" from="HunSt_2_1" to="GowSt_1_2" type="bicycle_bicycle"/>
    <trip id="bicycle222" depart="739.00" from="TorPl_1_1" to="HunSt_1_2" type="bicycle_bicycle"/>
    <trip id="bicycle223" depart="741.00" from="GorSq_2_1" to="TorPl_2_4" type="bicycle_bicycle"/>
    <trip id="bicycle224" depart="742.00" from="CheMe_1_1" to="MalSt_1_1" type="bicycle_bicycle"/>
    <trip id="bicycle225" depart="749.00" from="MalSt_2_1" to="TorPl_2_4" type="bicycle_bicycle"/>
    <trip id="bicycle226" depart="750.00" from="GowSt_2_1" to="GowSt_2_2" type="bicycle_bicycle"/>
    <trip id="bicycle227" depart="750.00" from="GowSt_2_1" to="GowSt_1_2" type="bicycle_bicycle"/>
    <trip id="bicycle228" depart="753.00" from="HunSt_2_1" to="GorSq_1_3" type="bicycle_bicycle"/>
    <trip id="bicycle229" depart="757.00" from="GowSt_2_1" to="GowSt_1_2" type="bicycle_bicycle"/>
    <trip id="bicycle230" depart="759.00" from="GorSq_2_1" to="MalSt_1_1" type="bicycle_bicycle"/>
    <trip id="bicycle231" depart="763.00" from="MalSt_2_1" to="MalSt_1_1" type="bicycle_bicycle"/>
    <trip id="bicycle232" depart="764.00" from="GorSq_2_1" to="GorSq_2_3" type="bicycle_bicycle"/>
    <trip id="bicycle233" depart="765.00" from="TorPl_1_1" to="MalSt_1_1" type="bicycle_bicycle"/>
    <trip id="bicycle234" depart="766.00" from="HunSt_2_1" to="MalSt_1_1" type="bicycle_bicycle"/>
    <trip id="bicycle235" depart="766.00" from="CheMe_1_1" to="TorPl_2_4" type="bicycle_bicycle"/>
    <trip id="bicycle236" depart="768.00" from="MalSt_2_1" to="MalSt_1_1" type="bicycle_bicycle"/>
    <trip id="bicycle237" depart="770.00" from="GowSt_1_1" to="GowSt_1_2" type="bicycle_bicycle"/>
    <trip id="bicycle238" depart="774.00" from="GowSt_1_1" to="GorSq_2_3" type="bicycle_bicycle"/>
    <trip id="bicycle239" depart="777.00" from="GowSt_2_1" to="GowSt_1_2" type="bicycle_bicycle"/>
    <trip id="bicycle240" depart="777.00" from="GowSt_2_1" to="GorSq_1_3" type="bicycle_bicycle"/>
    <trip id="bicycle241" depart="778.00" from="TorPl_1_1" to="MalSt_1_1" type="bicycle_bicycle"/>
    <trip id="bicycle242" depart="779.00" from="CheMe_1_1" to="HunSt_1_2" type="bicycle_bicycle"/>
    <trip id="bicycle243" depart="782.00" from="GowSt_2_1" to="GowSt_1_2" type="bicycle_bicycle"/>
    <trip id="bicycle244" depart="783.00" from="MalSt_2_1" to="GowSt_2_2" type="bicycle_bicycle"/>
    <trip id="bicycle245" depart="785.00" from="HunSt_2_1" to="MalSt_1_1" type="bicycle_bicycle"/>
    <trip id="bicycle246" depart="788.00" from="GorSq_1_1" to="GowSt_1_2" type="bicycle_bicycle"/>
    <trip id="bicycle247" depart="788.00" from="GowSt_1_1" to="TorPl_2_4" type="bicycle_bicycle"/>
    <trip id="bicycle248" depart="789.00" from="GorSq_2_1" to="MalSt_1_1" type="bicycle_bicycle"/>
    <trip id="bicycle249" depart="789.00" from="GowSt_1_1" to="HunSt_1_2" type="bicycle_bicycle"/>
    <trip id="bicycle250" depart="799.00" from="TorPl_1_1" to="TorPl_2_4" type="bicycle_bicycle"/>
    <trip id="bicycle251" depart="800.00" from="TorPl_1_1" to="HunSt_1_2" type="bicycle_bicycle"/>
    <trip id="bicycle252" depart="800.00" from="HunSt_2_1" to="GowSt_2_2" type="bicycle_bicycle"/>
    <trip id="bicycle253" depart="801.00" from="GowSt_2_1" to="MalSt_1_1" type="bicycle_bicycle"/>
    <trip id="bicycle254" depart="803.00" from="TorPl_1_1" to="MalSt_1_1" type="bicycle_bicycle"/>
    <trip id="bicycle255" depart="804.00" from="GorSq_2_1" to="TorPl_2_4" type="bicycle_bicycle"/>
    <trip id="bicycle256" depart="809.00" from="GorSq_2_1" to="GorSq_1_3" type="bicycle_bicycle"/>
    <trip id="bicycle257" depart="811.00" from="TorPl_1_1" to="GowSt_1_2" type="bicycle_bicycle"/>
    <trip id="bicycle258" depart="813.00" from="GowSt_2_1" to="GowSt_2_2" type="bicycle_bicycle"/>
    <trip id="bicycle259" depart="818.00" from="HunSt_2_1" to="MalSt_1_1" type="bicycle_bicycle"/>
    <trip id="bicycle260" depart="820.00" from="MalSt_2_1" to="HunSt_1_2" type="bicycle_bicycle"/>
    <trip id="bicycle261" depart="820.00" from="GorSq_2_1" to="TorPl_2_4" type="bicycle_bicycle"/>
    <trip id="bicycle262" depart="823.00" from="GowSt_2_1" to="GorSq_2_3" type="bicycle_bicycle"/>
    <trip id="bicycle263" depart="831.00" from="CheMe_1_1" to="GorSq_2_3" type="bicycle_bicycle"/>
    <trip id="bicycle264" depart="833.00" from="HunSt_1_1" to="GowSt_2_2" type="bicycle_bicycle"/>
    <trip id="bicycle265" depart="834.00" from="GowSt_2_1" to="MalSt_1_1" type="bicycle_bicycle"/>
    <trip id="bicycle266" depart="834.00" from="GowSt_1_1" to="HunSt_1_2" type="bicycle_bicycle"/>
    <trip id="bicycle267" depart="836.00" from="TorPl_1_1" to="GowSt_1_2" type="bicycle_bicycle"/>
    <trip id="bicycle268" depart="844.00" from="TorPl_1_1" to="GowSt_2_2" type="bicycle_bicycle"/>
    <trip id="bicycle269" depart="846.00" from="TorPl_1_1" to="TorPl_2_4" type="bicycle_bicycle"/>
    <trip id="bicycle270" depart="847.00" from="CheMe_1_1" to="GorSq_1_3" type="bicycle_bicycle"/>
    <trip id="bicycle271" depart="853.00" from="MalSt_2_1" to="TorPl_2_4" type="bicycle_bicycle"/>
    <trip id="bicycle272" depart="863.00" from="GowSt_1_1" to="MalSt_1_1" type="bicycle_bicycle"/>
    <trip id="bicycle273" depart="863.00" from="GorSq_1_1" to="HunSt_1_2" type="bicycle_bicycle"/>
    <trip id="bicycle274" depart="863.00" from="GorSq_1_1" to="HunSt_1_2" type="bicycle_bicycle"/>
    <trip id="bicycle275" depart="868.00" from="CheMe_1_1" to="GowSt_2_2" type="bicycle_bicycle"/>
    <trip id="bicycle276" depart="870.00" from="GorSq_1_1" to="MalSt_1_1" type="bicycle_bicycle"/>
    <trip id="bicycle277" depart="878.00" from="CheMe_1_1" to="MalSt_1_1" type="bicycle_bicycle"/>
    <trip id="bicycle278" depart="882.00" from="CheMe_1_1" to="TorPl_2_4" type="bicycle_bicycle"/>
    <trip id="bicycle279" depart="886.00" from="TorPl_1_1" to="GowSt_1_2" type="bicycle_bicycle"/>
    <trip id="bicycle280" depart="890.00" from="GorSq_2_1" to="MalSt_1_1" type="bicycle_bicycle"/>
    <trip id="bicycle281" depart="895.00" from="CheMe_1_1" to="HunSt_1_2" type="bicycle_bicycle"/>
    <trip id="bicycle282" depart="903.00" from="GowSt_1_1" to="GowSt_1_2" type="bicycle_bicycle"/>
    <trip id="bicycle283" depart="912.00" from="HunSt_2_1" to="GorSq_2_3" type="bicycle_bicycle"/>
    <trip id="bicycle284" depart="916.00" from="GorSq_2_1" to="MalSt_1_1" type="bicycle_bicycle"/>
    <trip id="bicycle285" depart="917.00" from="RidGa_2_1" to="GowSt_1_2" type="bicycle_bicycle"/>
    <trip id="bicycle286" depart="918.00" from="CheMe_1_1" to="GorSq_2_3" type="bicycle_bicycle"/>
    <trip id="bicycle287" depart="918.00" from="MalSt_2_1" to="HunSt_1_2" type="bicycle_bicycle"/>
    <trip id="bicycle288" depart="918.00" from="MalSt_2_1" to="HunSt_1_2" type="bicycle_bicycle"/>
    <trip id="bicycle289" depart="924.00" from="TorPl_1_1" to="MalSt_1_1" type="bicycle_bicycle"/>
    <trip id="bicycle290" depart="925.00" from="GowSt_2_1" to="GorSq_1_3" type="bicycle_bicycle"/>
    <trip id="bicycle291" depart="930.00" from="CheMe_1_1" to="TorPl_2_4" type="bicycle_bicycle"/>
    <trip id="bicycle292" depart="931.00" from="TorPl_1_1" to="GowSt_2_2" type="bicycle_bicycle"/>