<?xml version="1.0" encoding="UTF-8"?>

<!-- generated on 2025-12-27 09:24:25.849052 by Eclipse SUMO randomTrips.py UNKNOWN
<configuration>
    <net-file value="../networks/demo/main.net.xml"/>
    <output-trip-file value="../routes/demo/train/1000/bicycle.trips.xml"/>
    <route-file value="../routes/demo/train/1000/bicycle.rou.xml"/>
    <prefix value="bicycle"/>
    <vehicle-class value="bicycle"/>
    <fringe-factor value="max"/>
    <seed value="1000"/>
    <insertion-density value="100.0"/>
    <binomial value="100"/>
</configuration>
-->

<!-- generated on 2025-12-27T09:24:25.841308+00:00 by Eclipse SUMO duarouter 1.25.0
<duarouterConfiguration xmlns:xsi="http://www.w3.org/2001/XMLSchema-instance" xsi:noNamespaceSchemaLocation="http://sumo.dlr.de/xsd/duarouterConfiguration.xsd">

    <input>
        <net-file value="../networks/demo/main.net.xml"/>
        <route-files value="../routes/demo/train/1000/bicycle.trips.xml"/>
    </input>

    <output>
        <output-file value="../routes/demo/train/1000/bicycle.rou.xml"/>
        <alternatives-output value="NUL"/>
    </output>

    <time>
        <begin value="0"/>
        <end value="3600.0"/>
    </time>

    <report>
        <no-warnings value="true"/>
        <ignore-errors value="true"/>
        <no-step-log value="true"/>
    </report>

</duarouterConfiguration>
-->

<routes xmlns:xsi="http://www.w3.org/2001/XMLSchema-instance" xsi:noNamespaceSchemaLocation="http://sumo.dlr.de/xsd/routes_file.xsd">
    <vType id="bicycle_bicycle" vClass="bicycle"/>
    <vehicle id="bicycle0" type="bicycle_bicycle" depart="14.00">
        <route edges="MalSt_2_1 TorPl_2_1 TorPl_2_2 TorPl_2_3 TorPl_2_4"/>
    </vehicle>
    <vehicle id="bicycle1" type="bicycle_bicycle" depart="16.00">
        <route edges="GorSq_1_1 BynPl_2_1 BynPl_2_2 BynPl_2_3 TorPl_2_1 TorPl_2_2 TorPl_2_3 TorPl_2_4"/>
    </vehicle>
    <vehicle id="bicycle2" type="bicycle_bicycle" depart="21.00">
        <route edges="GorSq_2_1 GorSq_2_2 BynPl_2_1 BynPl_2_2 BynPl_2_3 TorPl_2_1 GowSt_2_2"/>
    </vehicle>
    <vehicle id="bicycle3" type="bicycle_bicycle" depart="21.00">
        <route edges="GorSq_2_1 GorSq_2_2 BynPl_2_1 BynPl_2_2 BynPl_2_3 TorPl_2_1 TorPl_2_2 TorPl_2_3 TorPl_2_4"/>
    </vehicle>
    <vehicle id="bicycle4" type="bicycle_bicycle" depart="28.00">
        <route edges="CheMe_1_1 TorPl_1_3 TorPl_1_4 BynPl_1_1 BynPl_1_2 BynPl_1_3 GorSq_2_3"/>
    </vehicle>
    <vehicle id="bicycle5" type="bicycle_bicycle" depart="36.00">
        <route edges="CheMe_1_1 TorPl_1_3 GowSt_2_2"/>
    </vehicle>
    <vehicle id="bicycle6" type="bicycle_bicycle" depart="62.00">
        <route edges="GowSt_1_1 TorPl_1_4 BynPl_1_1 BynPl_1_2 BynPl_1_3 GorSq_1_2 GorSq_1_3"/>
    </vehicle>
    <vehicle id="bicycle7" type="bicycle_bicycle" depart="68.00">
        <route edges="RidGa_2_1 TorPl_1_3 GowSt_1_2"/>
    </vehicle>
    <vehicle id="bicycle8" type="bicycle_bicycle" depart="78.00">
        <route edges="GorSq_1_1 BynPl_2_1 BynPl_2_2 BynPl_2_3 TorPl_2_1 TorPl_2_2 TorPl_2_3 HunSt_1_2"/>
    </vehicle>
    <vehicle id="bicycle9" type="bicycle_bicycle" depart="87.00">
        <route edges="CheMe_1_1 TorPl_2_3 TorPl_2_4"/>
    </vehicle>
    <vehicle id="bicycle10" type="bicycle_bicycle" depart="109.00">
        <route edges="TorPl_1_1 HunSt_1_2"/>
    </vehicle>
    <vehicle id="bicycle11" type="bicycle_bicycle" depart="131.00">
        <route edges="GorSq_2_1 GorSq_2_2 BynPl_2_1 BynPl_2_2 BynPl_2_3 MalSt_1_1"/>
    </vehicle>
    <vehicle id="bicycle12" type="bicycle_bicycle" depart="154.00">
        <route edges="GowSt_1_1 TorPl_1_4 BynPl_1_1 BynPl_1_2 BynPl_1_3 GorSq_2_3"/>
    </vehicle>
    <vehicle id="bicycle13" type="bicycle_bicycle" depart="167.00">
        <route edges="GowSt_1_1 TorPl_1_4 BynPl_1_1 BynPl_1_2 BynPl_1_3 GorSq_1_2 GorSq_1_3"/>
    </vehicle>
    <vehicle id="bicycle14" type="bicycle_bicycle" depart="176.00">
        <route edges="TorPl_1_1 TorPl_1_2 TorPl_1_3 GowSt_1_2"/>
    </vehicle>
    <vehicle id="bicycle15" type="bicycle_bicycle" depart="177.00">
        <route edges="CheMe_1_1 TorPl_1_3 TorPl_1_4 MalSt_1_1"/>
    </vehicle>
    <vehicle id="bicycle16" type="bicycle_bicycle" depart="193.00">
        <route edges="HunSt_1_1 TorPl_1_2 TorPl_1_3 GowSt_2_2"/>
    </vehicle>
    <vehicle id="bicycle17" type="bicycle_bicycle" depart="193.00">
        <route edges="GowSt_2_1 TorPl_1_4 BynPl_1_1 BynPl_1_2 BynPl_1_3 GorSq_2_3"/>
    </vehicle>
    <vehicle id="bicycle18" type="bicycle_bicycle" depart="201.00">
        <route edges="GowSt_2_1 GowSt_2_2"/>
    </vehicle>
    <vehicle id="bicycle19" type="bicycle_bicycle" depart="204.00">
        <route edges="MalSt_2_1 TorPl_2_1 TorPl_1_4 MalSt_1_1"/>
    </vehicle>
    <vehicle id="bicycle20" type="bicycle_bicycle" depart="224.00">
        <route edges="MalSt_2_1 TorPl_2_1 GowSt_1_2"/>
    </vehicle>
    <vehicle id="bicycle21" type="bicycle_bicycle" depart="224.00">
        <route edges="TorPl_1_1 TorPl_1_2 TorPl_1_3 GowSt_1_2"/>
    </vehicle>
    <vehicle id="bicycle22" type="bicycle_bicycle" depart="234.00">
        <route edges="CheMe_1_1 TorPl_1_3 TorPl_1_4 MalSt_1_1"/>
    </vehicle>
    <vehicle id="bicycle23" type="bicycle_bicycle" depart="250.00">
        <route edges="GowSt_1_1 TorPl_2_2 TorPl_2_3 HunSt_1_2"/>
    </vehicle>
    <vehicle id="bicycle24" type="bicycle_bicycle" depart="268.00">
        <route edges="RidGa_2_1 TorPl_2_3 TorPl_2_4"/>
    </vehicle>
    <vehicle id="bicycle25" type="bicycle_bicycle" depart="278.00">
        <route edges="MalSt_2_1 TorPl_2_1 TorPl_2_2 TorPl_2_3 HunSt_1_2"/>
    </vehicle>
    <vehicle id="bicycle26" type="bicycle_bicycle" depart="304.00">
        <route edges="HunSt_1_1 TorPl_2_4"/>
    </vehicle>
    <vehicle id="bicycle27" type="bicycle_bicycle" depart="308.00">
        <route edges="GorSq_2_1 GorSq_2_2 BynPl_2_1 BynPl_2_2 BynPl_2_3 TorPl_2_1 GowSt_2_2"/>
    </vehicle>
    <vehicle id="bicycle28" type="bicycle_bicycle" depart="311.00">
        <route edges="GowSt_2_1 TorPl_1_4 BynPl_1_1 BynPl_1_2 BynPl_1_3 GorSq_2_3"/>
    </vehicle>
    <vehicle id="bicycle29" type="bicycle_bicycle" depart="316.00">
        <route edges="MalSt_2_1 BynPl_1_1 BynPl_1_2 BynPl_1_3 GorSq_2_3"/>
    </vehicle>
    <vehicle id="bicycle30" type="bicycle_bicycle" depart="321.00">
        <route edges="HunSt_2_1 TorPl_1_2 TorPl_1_3 TorPl_2_2 TorPl_2_3 HunSt_1_2"/>
    </vehicle>
    <vehicle id="bicycle31" type="bicycle_bicycle" depart="325.00">
        <route edges="MalSt_2_1 TorPl_2_1 TorPl_2_2 TorPl_2_3 TorPl_2_4"/>
    </vehicle>
    <vehicle id="bicycle32" type="bicycle_bicycle" depart="332.00">
        <route edges="TorPl_1_1 TorPl_1_2 TorPl_1_3 TorPl_2_2 TorPl_2_3 TorPl_2_4"/>
    </vehicle>
    <vehicle id="bicycle33" type="bicycle_bicycle" depart="346.00">
        <route edges="GowSt_2_1 TorPl_1_4 BynPl_1_1 BynPl_1_2 BynPl_1_3 BynPl_2_1 BynPl_2_2 BynPl_2_3 TorPl_2_1 GowSt_1_2"/>
    </vehicle>
    <vehicle id="bicycle34" type="bicycle_bicycle" depart="357.00">
        <route edges="HunSt_2_1 TorPl_1_2 TorPl_1_3 TorPl_2_2 TorPl_2_3 HunSt_1_2"/>
    </vehicle>
    <vehicle id="bicycle35" type="bicycle_bicycle" depart="364.00">
        <route edges="GorSq_1_1 BynPl_2_1 BynPl_2_2 BynPl_2_3 TorPl_2_1 TorPl_2_2 TorPl_2_3 HunSt_1_2"/>
    </vehicle>
    <vehicle id="bicycle36" type="bicycle_bicycle" depart="380.00">
        <route edges="GowSt_2_1 TorPl_2_2 TorPl_2_3 TorPl_2_4"/>
    </vehicle>
    <vehicle id="bicycle37" type="bicycle_bicycle" depart="384.00">
        <route edges="HunSt_2_1 TorPl_1_2 TorPl_1_3 TorPl_1_4 MalSt_1_1"/>
    </vehicle>
    <vehicle id="bicycle38" type="bicycle_bicycle" depart="384.00">
        <route edges="RidGa_2_1 TorPl_1_3 TorPl_1_4 BynPl_1_1 BynPl_1_2 BynPl_1_3 GorSq_1_2 GorSq_1_3"/>
    </vehicle>
    <vehicle id="bicycle39" type="bicycle_bicycle" depart="391.00">
        <route edges="GorSq_2_1 GorSq_2_2 BynPl_2_1 BynPl_2_2 BynPl_2_3 MalSt_1_1"/>
    </vehicle>
    <vehicle id="bicycle40" type="bicycle_bicycle" depart="391.00">
        <route edges="GowSt_1_1 TorPl_1_4 BynPl_1_1 BynPl_1_2 BynPl_1_3 GorSq_1_2 GorSq_1_3"/>
    </vehicle>
    <vehicle id="bicycle41" type="bicycle_bicycle" depart="392.00">
        <route edges="CheMe_1_1 TorPl_1_3 GowSt_1_2"/>
    </vehicle>
    <vehicle id="bicycle42" type="bicycle_bicycle" depart="395.00">
        <route edges="GorSq_1_1 BynPl_2_1 BynPl_2_2 BynPl_2_3 MalSt_1_1"/>
    </vehicle>
    <vehicle id="bicycle43" type="bicycle_bicycle" depart="395.00">
        <route edges="HunSt_1_1 TorPl_1_2 TorPl_1_3 TorPl_1_4 MalSt_1_1"/>
    </vehicle>
    <vehicle id="bicycle44" type="bicycle_bicycle" depart="427.00">
        <route edges="GorSq_1_1 BynPl_2_1 BynPl_2_2 BynPl_2_3 MalSt_1_1"/>
    </vehicle>
    <vehicle id="bicycle45" type="bicycle_bicycle" depart="444.00">
        <route edges="GowSt_1_1 TorPl_2_2 TorPl_2_3 HunSt_1_2"/>
    </vehicle>
    <vehicle id="bicycle46" type="bicycle_bicycle" depart="462.00">
        <route edges="HunSt_1_1 TorPl_1_2 TorPl_1_3 TorPl_1_4 BynPl_1_1 BynPl_1_2 BynPl_1_3 GorSq_2_3"/>
    </vehicle>
    <vehicle id="bicycle47" type="bicycle_bicycle" depart="499.00">
        <route edges="CheMe_1_1 TorPl_1_3 GowSt_2_2"/>
    </vehicle>
    <vehicle id="bicycle48" type="bicycle_bicycle" depart="503.00">
        <route edges="CheMe_1_1 TorPl_1_3 GowSt_1_2"/>
    </vehicle>
    <vehicle id="bicycle49" type="bicycle_bicycle" depart="524.00">
        <route edges="HunSt_1_1 TorPl_1_2 TorPl_1_3 TorPl_1_4 BynPl_1_1 BynPl_1_2 BynPl_1_3 GorSq_1_2 GorSq_1_3"/>
    </vehicle>
    <vehicle id="bicycle50" type="bicycle_bicycle" depart="536.00">
        <route edges="MalSt_2_1 TorPl_2_1 TorPl_1_4 MalSt_1_1"/>
    </vehicle>
    <vehicle id="bicycle51" type="bicycle_bicycle" depart="544.00">
        <route edges="GorSq_2_1 GorSq_2_2 BynPl_2_1 BynPl_2_2 BynPl_2_3 TorPl_2_1 TorPl_2_2 TorPl_2_3 HunSt_1_2"/>
    </vehicle>
    <vehicle id="bicycle52" type="bicycle_bicycle" depart="547.00">
        <route edges="MalSt_2_1 BynPl_1_1 BynPl_1_2 BynPl_1_3 GorSq_2_3"/>
    </vehicle>
    <vehicle id="bicycle53" type="bicycle_bicycle" depart="548.00">
        <route edges="GowSt_1_1 TorPl_1_4 BynPl_1_1 BynPl_1_2 BynPl_1_3 GorSq_1_2 GorSq_1_3"/>
    </vehicle>
    <vehicle id="bicycle54" type="bicycle_bicycle" depart="549.00">
        <route edges="HunSt_1_1 TorPl_1_2 TorPl_1_3 TorPl_1_4 MalSt_1_1"/>
    </vehicle>
    <vehicle id="bicycle55" type="bicycle_bicycle" depart="550.00">
        <route edges="MalSt_2_1 TorPl_2_1 GowSt_2_2"/>
    </vehicle>
    <vehicle id="bicycle56" type="bicycle_bicycle" depart="553.00">
        <route edges="GowSt_1_1 TorPl_2_2 TorPl_2_3 HunSt_1_2"/>
    </vehicle>
    <vehicle id="bicycle57" type="bicycle_bicycle" depart="577.00">
        <route edges="GowSt_2_1 TorPl_1_4 BynPl_1_1 BynPl_1_2 BynPl_1_3 BynPl_2_1 BynPl_2_2 BynPl_2_3 TorPl_2_1 GowSt_1_2"/>
    </vehicle>
    <vehicle id="bicycle58" type="bicycle_bicycle" depart="583.00">
        <route edges="GowSt_2_1 TorPl_2_2 TorPl_2_3 TorPl_2_4"/>
    </vehicle>
    <vehicle id="bicycle59" type="bicycle_bicycle" depart="586.00">
        <route edges="CheMe_1_1 TorPl_2_3 HunSt_1_2"/>
    </vehicle>
    <vehicle id="bicycle60" type="bicycle_bicycle" depart="588.00">
        <route edges="MalSt_2_1 TorPl_2_1 GowSt_2_2"/>
    </vehicle>
    <vehicle id="bicycle61" type="bicycle_bicycle" depart="593.00">
        <route edges="MalSt_2_1 TorPl_2_1 GowSt_2_2"/>
    </vehicle>
    <vehicle id="bicycle62" type="bicycle_bicycle" depart="595.00">
        <route edges="HunSt_1_1 TorPl_2_4"/>
    </vehicle>
    <vehicle id="bicycle63" type="bicycle_bicycle" depart="604.00">
        <route edges="MalSt_2_1 BynPl_1_1 BynPl_1_2 BynPl_1_3 GorSq_2_3"/>
    </vehicle>
    <vehicle id="bicycle64" type="bicycle_bicycle" depart="606.00">
        <route edges="HunSt_2_1 TorPl_1_2 TorPl_1_3 TorPl_1_4 BynPl_1_1 BynPl_1_2 BynPl_1_3 GorSq_1_2 GorSq_1_3"/>
    </vehicle>
    <vehicle id="bicycle65" type="bicycle_bicycle" depart="608.00">
        <route edges="GorSq_2_1 GorSq_2_2 GorSq_1_2 GorSq_1_3"/>
    </vehicle>
    <vehicle id="bicycle66" type="bicycle_bicycle" depart="619.00">
        <route edges="TorPl_1_1 TorPl_1_2 TorPl_1_3 GowSt_1_2"/>
    </vehicle>
    <vehicle id="bicycle67" type="bicycle_bicycle" depart="623.00">
        <route edges="MalSt_2_1 TorPl_2_1 TorPl_1_4 MalSt_1_1"/>
    </vehicle>
    <vehicle id="bicycle68" type="bicycle_bicycle" depart="628.00">
        <route edges="MalSt_2_1 TorPl_2_1 GowSt_2_2"/>
    </vehicle>
    <vehicle id="bicycle69" type="bicycle_bicycle" depart="632.00">
        <route edges="MalSt_2_1 TorPl_2_1 TorPl_2_2 TorPl_2_3 TorPl_2_4"/>
    </vehicle>
    <vehicle id="bicycle70" type="bicycle_bicycle" depart="632.00">
        <route edges="HunSt_1_1 TorPl_1_2 TorPl_1_3 GowSt_2_2"/>
    </vehicle>
    <vehicle id="bicycle71" type="bicycle_bicycle" depart="633.00">
        <route edges="HunSt_2_1 TorPl_1_2 TorPl_1_3 GowSt_1_2"/>
    </vehicle>
    <vehicle id="bicycle72" type="bicycle_bicycle" depart="640.00">
        <route edges="CheMe_1_1 TorPl_1_3 GowSt_1_2"/>
    </vehicle>
    <vehicle id="bicycle73" type="bicycle_bicycle" depart="648.00">
        <route edges="RidGa_2_1 TorPl_2_3 HunSt_1_2"/>
    </vehicle>
    <vehicle id="bicycle74" type="bicycle_bicycle" depart="650.00">
        <route edges="MalSt_2_1 BynPl_1_1 BynPl_1_2 BynPl_1_3 GorSq_2_3"/>
    </vehicle>
    <vehicle id="bicycle75" type="bicycle_bicycle" depart="652.00">
        <route edges="MalSt_2_1 TorPl_2_1 GowSt_2_2"/>
    </vehicle>
    <vehicle id="bicycle76" type="bicycle_bicycle" depart="652.00">
        <route edges="GowSt_2_1 GowSt_2_2"/>
    </vehicle>
    <vehicle id="bicycle77" type="bicycle_bicycle" depart="653.00">
        <route edges="GorSq_1_1 BynPl_2_1 BynPl_2_2 BynPl_2_3 TorPl_2_1 TorPl_2_2 TorPl_2_3 TorPl_2_4"/>
    </vehicle>
    <vehicle id="bicycle78" type="bicycle_bicycle" depart="659.00">
        <route edges="GowSt_1_1 TorPl_1_4 BynPl_1_1 BynPl_1_2 BynPl_1_3 BynPl_2_1 BynPl_2_2 BynPl_2_3 TorPl_2_1 GowSt_2_2"/>
    </vehicle>
    <vehicle id="bicycle79" type="bicycle_bicycle" depart="665.00">
        <route edges="RidGa_2_1 TorPl_1_3 TorPl_1_4 BynPl_1_1 BynPl_1_2 BynPl_1_3 GorSq_1_2 GorSq_1_3"/>
    </vehicle>
    <vehicle id="bicycle80" type="bicycle_bicycle" depart="669.00">
        <route edges="GorSq_2_1 GorSq_2_2 BynPl_2_1 BynPl_2_2 BynPl_2_3 TorPl_2_1 GowSt_2_2"/>
    </vehicle>
    <vehicle id="bicycle81" type="bicycle_bicycle" depart="682.00">
        <route edges="HunSt_2_1 TorPl_2_4"/>
    </vehicle>
    <vehicle id="bicycle82" type="bicycle_bicycle" depart="682.00">
        <route edges="RidGa_2_1 TorPl_1_3 TorPl_1_4 BynPl_1_1 BynPl_1_2 BynPl_1_3 GorSq_1_2 GorSq_1_3"/>
    </vehicle>
    <vehicle id="bicycle83" type="bicycle_bicycle" depart="690.00">
        <route edges="CheMe_1_1 TorPl_1_3 TorPl_1_4 BynPl_1_1 BynPl_1_2 BynPl_1_3 GorSq_2_3"/>
    </vehicle>
    <vehicle id="bicycle84" type="bicycle_bicycle" depart="705.00">
        <route edges="GowSt_2_1 TorPl_1_4 BynPl_1_1 BynPl_1_2 BynPl_1_3 GorSq_2_3"/>
    </vehicle>
    <vehicle id="bicycle85" type="bicycle_bicycle" depart="722.00">
        <route edges="HunSt_2_1 TorPl_1_2 TorPl_1_3 TorPl_1_4 MalSt_1_1"/>
    </vehicle>
    <vehicle id="bicycle86" type="bicycle_bicycle" depart="732.00">
        <route edges="CheMe_1_1 TorPl_1_3 GowSt_1_2"/>
    </vehicle>
    <vehicle id="bicycle87" type="bicycle_bicycle" depart="737.00">
        <route edges="HunSt_1_1 TorPl_1_2 TorPl_1_3 TorPl_1_4 BynPl_1_1 BynPl_1_2 BynPl_1_3 GorSq_1_2 GorSq_1_3"/>
    </vehicle>
    <vehicle id="bicycle88" type="bicycle_bicycle" depart="737.00">
        <route edges="MalSt_2_1 TorPl_2_1 TorPl_2_2 TorPl_2_3 HunSt_1_2"/>
    </vehicle>
    <vehicle id="bicycle89" type="bicycle_bicycle" depart="741.00">
        <route edges="GowSt_2_1 TorPl_2_2 TorPl_2_3 TorPl_2_4"/>
    </vehicle>
    <vehicle id="bicycle90" type="bicycle_bicycle" depart="745.00">
        <route edges="GorSq_1_1 BynPl_2_1 BynPl_2_2 BynPl_2_3 TorPl_2_1 TorPl_2_2 TorPl_2_3 TorPl_2_4"/>
    </vehicle>
    <vehicle id="bicycle91" type="bicycle_bicycle" depart="750.00">
        <route edges="GorSq_2_1 GorSq_2_2 BynPl_2_1 BynPl_2_2 BynPl_2_3 MalSt_1_1"/>
    </vehicle>
    <vehicle id="bicycle92" type="bicycle_bicycle" depart="757.00">
        <route edges="HunSt_2_1 TorPl_2_4"/>
    </vehicle>
    <vehicle id="bicycle93" type="bicycle_bicycle" depart="764.00">
        <route edges="GorSq_2_1 GorSq_2_2 GorSq_1_2 GorSq_1_3"/>
    </vehicle>
    <vehicle id="bicycle94" type="bicycle_bicycle" depart="765.00">
        <route edges="RidGa_2_1 TorPl_2_3 TorPl_2_4"/>
    </vehicle>
    <vehicle id="bicycle95" type="bicycle_bicycle" depart="767.00">
        <route edges="GowSt_2_1 TorPl_1_4 MalSt_1_1"/>
    </vehicle>
    <vehicle id="bicycle96" type="bicycle_bicycle" depart="805.00">
        <route edges="CheMe_1_1 TorPl_2_3 HunSt_1_2"/>
    </vehicle>
    <vehicle id="bicycle97" type="bicycle_bicycle" depart="805.00">
        <route edges="GowSt_1_1 TorPl_2_2 TorPl_2_3 TorPl_2_4"/>
    </vehicle>
    <vehicle id="bicycle98" type="bicycle_bicycle" depart="807.00">
        <route edges="CheMe_1_1 TorPl_1_3 TorPl_1_4 MalSt_1_1"/>
    </vehicle>
    <vehicle id="bicycle99" type="bicycle_bicycle" depart="821.00">
        <route edges="HunSt_1_1 TorPl_2_4"/>
    </vehicle>
    <vehicle id="bicycle100" type="bicycle_bicycle" depart="822.00">
        <route edges="GowSt_2_1 TorPl_1_4 BynPl_1_1 BynPl_1_2 BynPl_1_3 GorSq_1_2 GorSq_1_3"/>
    </vehicle>
    <vehicle id="bicycle101" type="bicycle_bicycle" depart="846.00">
        <route edges="GorSq_1_1 BynPl_2_1 BynPl_2_2 BynPl_2_3 TorPl_2_1 TorPl_2_2 TorPl_2_3 TorPl_2_4"/>
    </vehicle>
    <vehicle id="bicycle102" type="bicycle_bicycle" depart="848.00">
        <route edges="GorSq_2_1 GorSq_2_2 BynPl_2_1 BynPl_2_2 BynPl_2_3 TorPl_2_1 GowSt_1_2"/>
    </vehicle>
    <vehicle id="bicycle103" type="bicycle_bicycle" depart="855.00">
        <route edges="MalSt_2_1 TorPl_2_1 TorPl_2_2 TorPl_2_3 TorPl_2_4"/>
    </vehicle>
    <vehicle id="bicycle104" type="bicycle_bicycle" depart="860.00">
        <route edges="HunSt_2_1 TorPl_1_2 TorPl_1_3 TorPl_1_4 BynPl_1_1 BynPl_1_2 BynPl_1_3 GorSq_1_2 GorSq_1_3"/>
    </vehicle>
    <vehicle id="bicycle105" type="bicycle_bicycle" depart="865.00">
        <route edges="GowSt_1_1 TorPl_1_4 BynPl_1_1 BynPl_1_2 BynPl_1_3 GorSq_1_2 GorSq_1_3"/>
    </vehicle>
    <vehicle id="bicycle106" type="bicycle_bicycle" depart="867.00">
        <route edges="MalSt_2_1 BynPl_1_1 BynPl_1_2 BynPl_1_3 GorSq_2_3"/>
    </vehicle>
    <vehicle id="bicycle107" type="bicycle_bicycle" depart="874.00">
        <route edges="RidGa_2_1 TorPl_1_3 GowSt_1_2"/>
    </vehicle>
    <vehicle id="bicycle108" type="bicycle_bicycle" depart="882.00">
        <route edges="HunSt_2_1 TorPl_2_4"/>
    </vehicle>
    <vehicle id="bicycle109" type="bicycle_bicycle" depart="901.00">
        <route edges="GowSt_2_1 TorPl_1_4 BynPl_1_1 BynPl_1_2 BynPl_1_3 GorSq_2_3"/>
    </vehicle>
    <vehicle id="bicycle110" type="bicycle_bicycle" depart="905.00">
        <route edges="GowSt_2_1 TorPl_2_2 TorPl_2_3 TorPl_2_4"/>
    </vehicle>
    <vehicle id="bicycle111" type="bicycle_bicycle" depart="914.00">
        <route edges="GowSt_1_1 TorPl_2_2 TorPl_2_3 HunSt_1_2"/>
    </vehicle>
    <vehicle id="bicycle112" type="bicycle_bicycle" depart="914.00">
        <route edges="GorSq_1_1 BynPl_2_1 BynPl_2_2 BynPl_2_3 TorPl_2_1 GowSt_1_2"/>
    </vehicle>
    <vehicle id="bicycle113" type="bicycle_bicycle" depart="932.00">
        <route edges="HunSt_1_1 TorPl_1_2 TorPl_1_3 TorPl_1_4 BynPl_1_1 BynPl_1_2 BynPl_1_3 GorSq_2_3"/>
    </vehicle>
    <vehicle id="bicycle114" type="bicycle_bicycle" depart="959.00">
        <route edges="GorSq_1_1 BynPl_2_1 BynPl_2_2 BynPl_2_3 TorPl_2_1 GowSt_1_2"/>
    </vehicle>
    <vehicle id="bicycle115" type="bicycle_bicycle" depart="990.00">
        <route edges="RidGa_2_1 TorPl_1_3 TorPl_1_4 BynPl_1_1 BynPl_1_2 BynPl_1_3 GorSq_1_2 GorSq_1_3"/>
    </vehicle>
    <vehicle id="bicycle116" type="bicycle_bicycle" depart="996.00">
        <route edges="GorSq_1_1 BynPl_2_1 BynPl_2_2 BynPl_2_3 TorPl_2_1 TorPl_2_2 TorPl_2_3 HunSt_1_2"/>
    </vehicle>
    <vehicle id="bicycle117" type="bicycle_bicycle" depart="1004.00">
        <route edges="GowSt_2_1 TorPl_2_2 TorPl_2_3 HunSt_1_2"/>
    </vehicle>
    <vehicle id="bicycle118" type="bicycle_bicycle" depart="1025.00">
        <route edges="GorSq_2_1 GorSq_2_2 BynPl_2_1 BynPl_2_2 BynPl_2_3 TorPl_2_1 TorPl_2_2 TorPl_2_3 TorPl_2_4"/>
    </vehicle>
    <vehicle id="bicycle119" type="bicycle_bicycle" depart="1025.00">
        <route edges="GorSq_2_1 GorSq_2_2 BynPl_2_1 BynPl_2_2 BynPl_2_3 TorPl_2_1 TorPl_2_2 TorPl_2_3 HunSt_1_2"/>
    </vehicle>
    <vehicle id="bicycle120" type="bicycle_bicycle" depart="1025.00">
        <route edges="GorSq_1_1 BynPl_2_1 BynPl_2_2 BynPl_2_3 TorPl_2_1 TorPl_2_2 TorPl_2_3 TorPl_2_4"/>
    </vehicle>
    <vehicle id="bicycle121" type="bicycle_bicycle" depart="1057.00">
        <route edges="CheMe_1_1 TorPl_2_3 HunSt_1_2"/>
    </vehicle>
    <vehicle id="bicycle122" type="bicycle_bicycle" depart="1071.00">
        <route edges="TorPl_1_1 TorPl_1_2 TorPl_1_3 TorPl_1_4 BynPl_1_1 BynPl_1_2 BynPl_1_3 GorSq_2_3"/>
    </vehicle>
    <vehicle id="bicycle123" type="bicycle_bicycle" depart="1079.00">
        <route edges="TorPl_1_1 TorPl_1_2 TorPl_1_3 GowSt_2_2"/>
    </vehicle>
    <vehicle id="bicycle124" type="bicycle_bicycle" depart="1091.00">
        <route edges="HunSt_2_1 TorPl_1_2 TorPl_1_3 GowSt_1_2"/>
    </vehicle>
    <vehicle id="bicycle125" type="bicycle_bicycle" depart="1104.00">
        <route edges="RidGa_2_1 TorPl_1_3 GowSt_1_2"/>
    </vehicle>
    <vehicle id="bicycle126" type="bicycle_bicycle" depart="1112.00">
        <route edges="GorSq_1_1 BynPl_2_1 BynPl_2_2 BynPl_2_3 TorPl_2_1 TorPl_2_2 TorPl_2_3 HunSt_1_2"/>
    </vehicle>
    <vehicle id="bicycle127" type="bicycle_bicycle" depart="1113.00">
        <route edges="MalSt_2_1 TorPl_2_1 GowSt_1_2"/>
    </vehicle>
    <vehicle id="bicycle128" type="bicycle_bicycle" depart="1125.00">
        <route edges="RidGa_2_1 TorPl_1_3 GowSt_1_2"/>
    </vehicle>
    <vehicle id="bicycle129" type="bicycle_bicycle" depart="1130.00">
        <route edges="TorPl_1_1 TorPl_1_2 TorPl_1_3 TorPl_1_4 MalSt_1_1"/>
    </vehicle>
    <vehicle id="bicycle130" type="bicycle_bicycle" depart="1142.00">
        <route edges="GowSt_2_1 TorPl_2_2 TorPl_2_3 TorPl_2_4"/>
    </vehicle>
    <vehicle id="bicycle131" type="bicycle_bicycle" depart="1148.00">
        <route edges="RidGa_2_1 TorPl_1_3 TorPl_1_4 BynPl_1_1 BynPl_1_2 BynPl_1_3 GorSq_2_3"/>
    </vehicle>
    <vehicle id="bicycle132" type="bicycle_bicycle" depart="1165.00">
        <route edges="HunSt_2_1 TorPl_1_2 TorPl_1_3 TorPl_1_4 BynPl_1_1 BynPl_1_2 BynPl_1_3 GorSq_1_2 GorSq_1_3"/>
    </vehicle>
    <vehicle id="bicycle133" type="bicycle_bicycle" depart="1169.00">
        <route edges="CheMe_1_1 TorPl_1_3 TorPl_1_4 BynPl_1_1 BynPl_1_2 BynPl_1_3 GorSq_1_2 GorSq_1_3"/>
    </vehicle>
    <vehicle id="bicycle134" type="bicycle_bicycle" depart="1170.00">
        <route edges="TorPl_1_1 TorPl_1_2 TorPl_1_3 GowSt_2_2"/>
    </vehicle>
    <vehicle id="bicycle135" type="bicycle_bicycle" depart="1170.00">
        <route edges="HunSt_2_1 TorPl_1_2 TorPl_1_3 TorPl_1_4 MalSt_1_1"/>
    </vehicle>
    <vehicle id="bicycle136" type="bicycle_bicycle" depart="1174.00">
        <route edges="GorSq_1_1 BynPl_2_1 BynPl_2_2 BynPl_2_3 TorPl_2_1 TorPl_2_2 TorPl_2_3 HunSt_1_2"/>
    </vehicle>
    <vehicle id="bicycle137" type="bicycle_bicycle" depart="1177.00">
        <route edges="TorPl_1_1 TorPl_1_2 TorPl_1_3 TorPl_1_4 MalSt_1_1"/>
    </vehicle>
    <vehicle id="bicycle138" type="bicycle_bicycle" depart="1185.00">
        <route edges="GowSt_2_1 TorPl_1_4 MalSt_1_1"/>
    </vehicle>
    <vehicle id="bicycle139" type="bicycle_bicycle" depart="1194.00">
        <route edges="HunSt_1_1 TorPl_1_2 TorPl_1_3 TorPl_1_4 BynPl_1_1 BynPl_1_2 BynPl_1_3 GorSq_2_3"/>
    </vehicle>
    <vehicle id="bicycle140" type="bicycle_bicycle" depart="1201.00">
        <route edges="GowSt_2_1 TorPl_1_4 MalSt_1_1"/>
    </vehicle>
    <vehicle id="bicycle141" type="bicycle_bicycle" depart="1209.00">
        <route edges="HunSt_1_1 TorPl_1_2 TorPl_1_3 TorPl_1_4 MalSt_1_1"/>
    </vehicle>
    <vehicle id="bicycle142" type="bicycle_bicycle" depart="1220.00">
        <route edges="GorSq_1_1 BynPl_2_1 BynPl_2_2 BynPl_2_3 BynPl_1_1 BynPl_1_2 BynPl_1_3 GorSq_2_3"/>
    </vehicle>
    <vehicle id="bicycle143" type="bicycle_bicycle" depart="1222.00">
        <route edges="GowSt_2_1 TorPl_2_2 TorPl_2_3 HunSt_1_2"/>
    </vehicle>
    <vehicle id="bicycle144" type="bicycle_bicycle" depart="1237.00">
        <route edges="TorPl_1_1 TorPl_1_2 TorPl_1_3 TorPl_2_2 TorPl_2_3 TorPl_2_4"/>
    </vehicle>
    <vehicle id="bicycle145" type="bicycle_bicycle" depart="1243.00">
        <route edges="GowSt_2_1 TorPl_1_4 BynPl_1_1 BynPl_1_2 BynPl_1_3 GorSq_2_3"/>
    </vehicle>
    <vehicle id="bicycle146" type="bicycle_bicycle" depart="1243.00">
        <route edges="HunSt_1_1 TorPl_2_4"/>
    </vehicle>
    <vehicle id="bicycle147" type="bicycle_bicycle" depart="1251.00">
        <route edges="RidGa_2_1 TorPl_1_3 TorPl_1_4 MalSt_1_1"/>
    </vehicle>
    <vehicle id="bicycle148" type="bicycle_bicycle" depart="1253.00">
        <route edges="RidGa_2_1 TorPl_1_3 TorPl_1_4 MalSt_1_1"/>
    </vehicle>
    <vehicle id="bicycle149" type="bicycle_bicycle" depart="1259.00">
        <route edges="GowSt_1_1 TorPl_2_2 TorPl_2_3 HunSt_1_2"/>
    </vehicle>
    <vehicle id="bicycle150" type="bicycle_bicycle" depart="1282.00">
        <route edges="RidGa_2_1 TorPl_1_3 TorPl_1_4 MalSt_1_1"/>
    </vehicle>
    <vehicle id="bicycle151" type="bicycle_bicycle" depart="1286.00">
        <route edges="GorSq_1_1 BynPl_2_1 BynPl_2_2 BynPl_2_3 MalSt_1_1"/>
    </vehicle>
    <vehicle id="bicycle152" type="bicycle_bicycle" depart="1297.00">
        <route edges="MalSt_2_1 TorPl_2_1 GowSt_2_2"/>
    </vehicle>
    <vehicle id="bicycle153" type="bicycle_bicycle" depart="1303.00">
        <route edges="MalSt_2_1 TorPl_2_1 TorPl_1_4 MalSt_1_1"/>
    </vehicle>
    <vehicle id="bicycle154" type="bicycle_bicycle" depart="1309.00">
        <route edges="GowSt_1_1 TorPl_1_4 BynPl_1_1 BynPl_1_2 BynPl_1_3 GorSq_2_3"/>
    </vehicle>
    <vehicle id="bicycle155" type="bicycle_bicycle" depart="1309.00">
        <route edges="TorPl_1_1 TorPl_1_2 TorPl_1_3 TorPl_1_4 BynPl_1_1 BynPl_1_2 BynPl_1_3 GorSq_1_2 GorSq_1_3"/>
    </vehicle>
    <vehicle id="bicycle156" type="bicycle_bicycle" depart="1334.00">
        <route edges="GowSt_1_1 TorPl_2_2 TorPl_2_3 TorPl_2_4"/>
    </vehicle>
    <vehicle id="bicycle157" type="bicycle_bicycle" depart="1345.00">
        <route edges="GorSq_1_1 BynPl_2_1 BynPl_2_2 BynPl_2_3 TorPl_2_1 TorPl_2_2 TorPl_2_3 TorPl_2_4"/>
    </vehicle>
    <vehicle id="bicycle158" type="bicycle_bicycle" depart="1346.00">
        <route edges="GorSq_1_1 BynPl_2_1 BynPl_2_2 BynPl_2_3 BynPl_1_1 BynPl_1_2 BynPl_1_3 GorSq_2_3"/>
    </vehicle>
    <vehicle id="bicycle159" type="bicycle_bicycle" depart="1354.00">
        <route edges="GowSt_1_1 TorPl_1_4 MalSt_1_1"/>
    </vehicle>
    <vehicle id="bicycle160" type="bicycle_bicycle" depart="1361.00">
        <route edges="TorPl_1_1 TorPl_1_2 TorPl_1_3 TorPl_1_4 BynPl_1_1 BynPl_1_2 BynPl_1_3 GorSq_2_3"/>
    </vehicle>
    <vehicle id="bicycle161" type="bicycle_bicycle" depart="1362.00">
        <route edges="CheMe_1_1 TorPl_2_3 TorPl_2_4"/>
    </vehicle>
    <vehicle id="bicycle162" type="bicycle_bicycle" depart="1367.00">
        <route edges="GowSt_2_1 TorPl_1_4 BynPl_1_1 BynPl_1_2 BynPl_1_3 GorSq_1_2 GorSq_1_3"/>
    </vehicle>
    <vehicle id="bicycle163" type="bicycle_bicycle" depart="1393.00">
        <route edges="GorSq_2_1 GorSq_2_2 BynPl_2_1 BynPl_2_2 BynPl_2_3 TorPl_2_1 TorPl_2_2 TorPl_2_3 HunSt_1_2"/>
    </vehicle>
    <vehicle id="bicycle164" type="bicycle_bicycle" depart="1433.00">
        <route edges="TorPl_1_1 TorPl_1_2 TorPl_1_3 TorPl_2_2 TorPl_2_3 TorPl_2_4"/>
    </vehicle>
    <vehicle id="bicycle165" type="bicycle_bicycle" depart="1437.00">
        <route edges="GowSt_2_1 TorPl_1_4 MalSt_1_1"/>
    </vehicle>
    <vehicle id="bicycle166" type="bicycle_bicycle" depart="1447.00">
        <route edges="GowSt_2_1 TorPl_1_4 BynPl_1_1 BynPl_1_2 BynPl_1_3 GorSq_2_3"/>
    </vehicle>
    <vehicle id="bicycle167" type="bicycle_bicycle" depart="1449.00">
        <route edges="RidGa_2_1 TorPl_1_3 GowSt_1_2"/>
    </vehicle>
    <vehicle id="bicycle168" type="bicycle_bicycle" depart="1455.00">
        <route edges="HunSt_2_1 TorPl_1_2 TorPl_1_3 TorPl_1_4 MalSt_1_1"/>
    </vehicle>
    <vehicle id="bicycle169" type="bicycle_bicycle" depart="1465.00">
        <route edges="HunSt_1_1 TorPl_1_2 TorPl_1_3 GowSt_2_2"/>
    </vehicle>
    <vehicle id="bicycle170" type="bicycle_bicycle" depart="1473.00">
        <route edges="GowSt_1_1 GowSt_1_2"/>
    </vehicle>
    <vehicle id="bicycle171" type="bicycle_bicycle" depart="1473.00">
        <route edges="GowSt_1_1 TorPl_1_4 BynPl_1_1 BynPl_1_2 BynPl_1_3 GorSq_1_2 GorSq_1_3"/>
    </vehicle>
    <vehicle id="bicycle172" type="bicycle_bicycle" depart="1473.00">
        <route edges="TorPl_1_1 TorPl_1_2 TorPl_1_3 TorPl_1_4 BynPl_1_1 BynPl_1_2 BynPl_1_3 GorSq_2_3"/>
    </vehicle>
    <vehicle id="bicycle173" type="bicycle_bicycle" depart="1480.00">
        <route edges="HunSt_1_1 TorPl_1_2 TorPl_1_3 GowSt_2_2"/>
    </vehicle>
    <vehicle id="bicycle174" type="bicycle_bicycle" depart="1496.00">
        <route edges="GorSq_2_1 GorSq_2_2 BynPl_2_1 BynPl_2_2 BynPl_2_3 MalSt_1_1"/>
    </vehicle>
    <vehicle id="bicycle175" type="bicycle_bicycle" depart="1514.00">
        <route edges="HunSt_1_1 TorPl_1_2 TorPl_1_3 TorPl_1_4 BynPl_1_1 BynPl_1_2 BynPl_1_3 GorSq_1_2 GorSq_1_3"/>
    </vehicle>