<?xml version="1.0" encoding="UTF-8"?>

<!-- generated on 2025-11-24 12:06:39.216238 by Eclipse SUMO randomTrips.py UNKNOWN
<configuration>
    <net-file value="../networks/demo/main.net.xml"/>
    <output-trip-file value="../routes/demo/1000/bicycle.trips.xml"/>
    <route-file value="../routes/demo/1000/bicycle.rou.xml"/>
    <prefix value="bicycle"/>
    <vehicle-class value="bicycle"/>
    <fringe-factor value="max"/>
    <seed value="1000"/>
    <period value="10.0"/>
    <binomial value="100"/>
</configuration>
-->

<!-- generated on 2025-11-24T12:06:39.210492+00:00 by Eclipse SUMO duarouter 1.25.0
<duarouterConfiguration xmlns:xsi="http://www.w3.org/2001/XMLSchema-instance" xsi:noNamespaceSchemaLocation="http://sumo.dlr.de/xsd/duarouterConfiguration.xsd">

    <input>
        <net-file value="../networks/demo/main.net.xml"/>
        <route-files value="../routes/demo/1000/bicycle.trips.xml"/>
    </input>

    <output>
        <output-file value="../routes/demo/1000/bicycle.rou.xml"/>
        <alternatives-output value="NUL"/>
    </output>

    <time>
        <begin value="0"/>
        <end value="3600.0"/>
    </time>

    <report>
        <no-warnings value="true"/>
        <ignore-errors value="true"/>
        <no-step-log value="true"/>
    </report>

</duarouterConfiguration>
-->

<routes xmlns:xsi="http://www.w3.org/2001/XMLSchema-instance" xsi:noNamespaceSchemaLocation="http://sumo.dlr.de/xsd/routes_file.xsd">
    <vType id="bicycle_bicycle" vClass="bicycle"/>
    <vehicle id="bicycle0" type="bicycle_bicycle" depart="14.00">
        <route edges="MalSt_2_1 TorPl_2_1 TorPl_2_2 TorPl_2_3 TorPl_2_4 TorPl_2_5"/>
    </vehicle>
    <vehicle id="bicycle1" type="bicycle_bicycle" depart="16.00">
        <route edges="GorSq_1_1 BynPl_2_1 BynPl_2_2 BynPl_2_3 TorPl_2_1 TorPl_2_2 TorPl_2_3 TorPl_2_4 TorPl_2_5"/>
    </vehicle>
    <vehicle id="bicycle2" type="bicycle_bicycle" depart="28.00">
        <route edges="CheMe_1_1 TorPl_1_3 TorPl_1_4 TorPl_1_5 BynPl_1_1 BynPl_1_2 BynPl_1_3 GorSq_2_3"/>
    </vehicle>
    <vehicle id="bicycle3" type="bicycle_bicycle" depart="36.00">
        <route edges="CheMe_1_1 TorPl_1_3 TorPl_1_4 GowSt_2_3"/>
    </vehicle>
    <vehicle id="bicycle4" type="bicycle_bicycle" depart="62.00">
        <route edges="GowSt_1_1 GowSt_1_2 TorPl_1_5 BynPl_1_1 BynPl_1_2 BynPl_1_3 GorSq_1_2 GorSq_1_3"/>
    </vehicle>
    <vehicle id="bicycle5" type="bicycle_bicycle" depart="78.00">
        <route edges="GorSq_1_1 BynPl_2_1 BynPl_2_2 BynPl_2_3 TorPl_2_1 TorPl_2_2 TorPl_2_3 TorPl_2_4 HunSt_1_2"/>
    </vehicle>
    <vehicle id="bicycle6" type="bicycle_bicycle" depart="131.00">
        <route edges="GorSq_2_1 GorSq_2_2 BynPl_2_1 BynPl_2_2 BynPl_2_3 MalSt_1_1"/>
    </vehicle>
    <vehicle id="bicycle7" type="bicycle_bicycle" depart="154.00">
        <route edges="GowSt_1_1 GowSt_1_2 TorPl_1_5 BynPl_1_1 BynPl_1_2 BynPl_1_3 GorSq_2_3"/>
    </vehicle>
    <vehicle id="bicycle8" type="bicycle_bicycle" depart="176.00">
        <route edges="TorPl_1_1 TorPl_1_2 TorPl_1_3 TorPl_1_4 GowSt_1_3"/>
    </vehicle>
    <vehicle id="bicycle9" type="bicycle_bicycle" depart="193.00">
        <route edges="HunSt_1_1 TorPl_1_2 TorPl_1_3 TorPl_1_4 GowSt_2_3"/>
    </vehicle>
    <vehicle id="bicycle10" type="bicycle_bicycle" depart="201.00">
        <route edges="GowSt_2_1 GowSt_2_2 GowSt_2_3"/>
    </vehicle>
    <vehicle id="bicycle11" type="bicycle_bicycle" depart="204.00">
        <route edges="MalSt_2_1 TorPl_2_1 TorPl_2_2 TorPl_1_5 MalSt_1_1"/>
    </vehicle>
    <vehicle id="bicycle12" type="bicycle_bicycle" depart="224.00">
        <route edges="MalSt_2_1 TorPl_2_1 TorPl_2_2 GowSt_1_3"/>
    </vehicle>
    <vehicle id="bicycle13" type="bicycle_bicycle" depart="224.00">
        <route edges="TorPl_1_1 TorPl_1_2 TorPl_1_3 TorPl_1_4 GowSt_1_3"/>
    </vehicle>
    <vehicle id="bicycle14" type="bicycle_bicycle" depart="234.00">
        <route edges="CheMe_1_1 TorPl_1_3 TorPl_1_4 TorPl_1_5 MalSt_1_1"/>
    </vehicle>
    <vehicle id="bicycle15" type="bicycle_bicycle" depart="250.00">
        <route edges="GowSt_1_1 GowSt_1_2 TorPl_2_3 TorPl_2_4 HunSt_1_2"/>
    </vehicle>
    <vehicle id="bicycle16" type="bicycle_bicycle" depart="268.00">
        <route edges="RidGa_2_1 TorPl_2_4 TorPl_2_5"/>
    </vehicle>
    <vehicle id="bicycle17" type="bicycle_bicycle" depart="278.00">
        <route edges="MalSt_2_1 TorPl_2_1 TorPl_2_2 TorPl_2_3 TorPl_2_4 HunSt_1_2"/>
    </vehicle>
    <vehicle id="bicycle18" type="bicycle_bicycle" depart="304.00">
        <route edges="HunSt_1_1 TorPl_2_5"/>
    </vehicle>
    <vehicle id="bicycle19" type="bicycle_bicycle" depart="308.00">
        <route edges="GorSq_2_1 GorSq_2_2 BynPl_2_1 BynPl_2_2 BynPl_2_3 TorPl_2_1 TorPl_2_2 GowSt_2_3"/>
    </vehicle>
    <vehicle id="bicycle20" type="bicycle_bicycle" depart="311.00">
        <route edges="GowSt_2_1 GowSt_2_2 TorPl_1_5 BynPl_1_1 BynPl_1_2 BynPl_1_3 GorSq_2_3"/>
    </vehicle>
    <vehicle id="bicycle21" type="bicycle_bicycle" depart="316.00">
        <route edges="MalSt_2_1 BynPl_1_1 BynPl_1_2 BynPl_1_3 GorSq_2_3"/>
    </vehicle>
    <vehicle id="bicycle22" type="bicycle_bicycle" depart="322.00">
        <route edges="HunSt_2_1 TorPl_1_2 TorPl_1_3 TorPl_1_4 TorPl_2_3 TorPl_2_4 HunSt_1_2"/>
    </vehicle>
    <vehicle id="bicycle23" type="bicycle_bicycle" depart="325.00">
        <route edges="MalSt_2_1 TorPl_2_1 TorPl_2_2 TorPl_2_3 TorPl_2_4 TorPl_2_5"/>
    </vehicle>
    <vehicle id="bicycle24" type="bicycle_bicycle" depart="332.00">
        <route edges="TorPl_1_1 TorPl_1_2 TorPl_1_3 TorPl_1_4 TorPl_2_3 TorPl_2_4 TorPl_2_5"/>
    </vehicle>
    <vehicle id="bicycle25" type="bicycle_bicycle" depart="346.00">
        <route edges="GowSt_2_1 GowSt_2_2 TorPl_1_5 BynPl_1_1 BynPl_1_2 BynPl_1_3 BynPl_2_1 BynPl_2_2 BynPl_2_3 TorPl_2_1 TorPl_2_2 GowSt_1_3"/>
    </vehicle>
    <vehicle id="bicycle26" type="bicycle_bicycle" depart="357.00">
        <route edges="HunSt_2_1 TorPl_1_2 TorPl_1_3 TorPl_1_4 TorPl_2_3 TorPl_2_4 HunSt_1_2"/>
    </vehicle>
    <vehicle id="bicycle27" type="bicycle_bicycle" depart="380.00">
        <route edges="GowSt_2_1 GowSt_2_2 TorPl_2_3 TorPl_2_4 TorPl_2_5"/>
    </vehicle>
    <vehicle id="bicycle28" type="bicycle_bicycle" depart="384.00">
        <route edges="HunSt_2_1 TorPl_1_2 TorPl_1_3 TorPl_1_4 TorPl_1_5 MalSt_1_1"/>
    </vehicle>
    <vehicle id="bicycle29" type="bicycle_bicycle" depart="384.00">
        <route edges="RidGa_2_1 TorPl_1_3 TorPl_1_4 TorPl_1_5 BynPl_1_1 BynPl_1_2 BynPl_1_3 GorSq_1_2 GorSq_1_3"/>
    </vehicle>
    <vehicle id="bicycle30" type="bicycle_bicycle" depart="391.00">
        <route edges="GorSq_2_1 GorSq_2_2 BynPl_2_1 BynPl_2_2 BynPl_2_3 MalSt_1_1"/>
    </vehicle>
    <vehicle id="bicycle31" type="bicycle_bicycle" depart="391.00">
        <route edges="GowSt_1_1 GowSt_1_2 TorPl_1_5 BynPl_1_1 BynPl_1_2 BynPl_1_3 GorSq_1_2 GorSq_1_3"/>
    </vehicle>
    <vehicle id="bicycle32" type="bicycle_bicycle" depart="395.00">
        <route edges="GorSq_1_1 BynPl_2_1 BynPl_2_2 BynPl_2_3 MalSt_1_1"/>
    </vehicle>
    <vehicle id="bicycle33" type="bicycle_bicycle" depart="427.00">
        <route edges="GorSq_1_1 BynPl_2_1 BynPl_2_2 BynPl_2_3 MalSt_1_1"/>
    </vehicle>
    <vehicle id="bicycle34" type="bicycle_bicycle" depart="499.00">
        <route edges="CheMe_1_1 TorPl_1_3 TorPl_1_4 GowSt_2_3"/>
    </vehicle>
    <vehicle id="bicycle35" type="bicycle_bicycle" depart="503.00">
        <route edges="CheMe_1_1 TorPl_1_3 TorPl_1_4 GowSt_1_3"/>
    </vehicle>
    <vehicle id="bicycle36" type="bicycle_bicycle" depart="525.00">
        <route edges="HunSt_1_1 TorPl_1_2 TorPl_1_3 TorPl_1_4 TorPl_1_5 BynPl_1_1 BynPl_1_2 BynPl_1_3 GorSq_1_2 GorSq_1_3"/>
    </vehicle>
    <vehicle id="bicycle37" type="bicycle_bicycle" depart="545.00">
        <route edges="GorSq_2_1 GorSq_2_2 BynPl_2_1 BynPl_2_2 BynPl_2_3 TorPl_2_1 TorPl_2_2 TorPl_2_3 TorPl_2_4 HunSt_1_2"/>
    </vehicle>
    <vehicle id="bicycle38" type="bicycle_bicycle" depart="548.00">
        <route edges="GowSt_1_1 GowSt_1_2 TorPl_1_5 BynPl_1_1 BynPl_1_2 BynPl_1_3 GorSq_1_2 GorSq_1_3"/>
    </vehicle>
    <vehicle id="bicycle39" type="bicycle_bicycle" depart="550.00">
        <route edges="HunSt_1_1 TorPl_1_2 TorPl_1_3 TorPl_1_4 TorPl_1_5 MalSt_1_1"/>
    </vehicle>
    <vehicle id="bicycle40" type="bicycle_bicycle" depart="553.00">
        <route edges="GowSt_1_1 GowSt_1_2 TorPl_2_3 TorPl_2_4 HunSt_1_2"/>
    </vehicle>
    <vehicle id="bicycle41" type="bicycle_bicycle" depart="577.00">
        <route edges="GowSt_2_1 GowSt_2_2 TorPl_1_5 BynPl_1_1 BynPl_1_2 BynPl_1_3 BynPl_2_1 BynPl_2_2 BynPl_2_3 TorPl_2_1 TorPl_2_2 GowSt_1_3"/>
    </vehicle>
    <vehicle id="bicycle42" type="bicycle_bicycle" depart="583.00">
        <route edges="GowSt_2_1 GowSt_2_2 TorPl_2_3 TorPl_2_4 TorPl_2_5"/>
    </vehicle>
    <vehicle id="bicycle43" type="bicycle_bicycle" depart="586.00">
        <route edges="CheMe_1_1 TorPl_2_4 HunSt_1_2"/>
    </vehicle>
    <vehicle id="bicycle44" type="bicycle_bicycle" depart="588.00">
        <route edges="MalSt_2_1 TorPl_2_1 TorPl_2_2 GowSt_2_3"/>
    </vehicle>
    <vehicle id="bicycle45" type="bicycle_bicycle" depart="595.00">
        <route edges="HunSt_1_1 TorPl_2_5"/>
    </vehicle>
    <vehicle id="bicycle46" type="bicycle_bicycle" depart="604.00">
        <route edges="MalSt_2_1 BynPl_1_1 BynPl_1_2 BynPl_1_3 GorSq_2_3"/>
    </vehicle>
    <vehicle id="bicycle47" type="bicycle_bicycle" depart="606.00">
        <route edges="HunSt_2_1 TorPl_1_2 TorPl_1_3 TorPl_1_4 TorPl_1_5 BynPl_1_1 BynPl_1_2 BynPl_1_3 GorSq_1_2 GorSq_1_3"/>
    </vehicle>
    <vehicle id="bicycle48" type="bicycle_bicycle" depart="609.00">
        <route edges="GorSq_2_1 GorSq_2_2 GorSq_1_2 GorSq_1_3"/>
    </vehicle>
    <vehicle id="bicycle49" type="bicycle_bicycle" depart="620.00">
        <route edges="TorPl_1_1 TorPl_1_2 TorPl_1_3 TorPl_1_4 GowSt_1_3"/>
    </vehicle>
    <vehicle id="bicycle50" type="bicycle_bicycle" depart="623.00">
        <route edges="MalSt_2_1 TorPl_2_1 TorPl_2_2 TorPl_1_5 MalSt_1_1"/>
    </vehicle>
    <vehicle id="bicycle51" type="bicycle_bicycle" depart="628.00">
        <route edges="MalSt_2_1 TorPl_2_1 TorPl_2_2 GowSt_2_3"/>
    </vehicle>
    <vehicle id="bicycle52" type="bicycle_bicycle" depart="632.00">
        <route edges="MalSt_2_1 TorPl_2_1 TorPl_2_2 TorPl_2_3 TorPl_2_4 TorPl_2_5"/>
    </vehicle>
    <vehicle id="bicycle53" type="bicycle_bicycle" depart="632.00">
        <route edges="HunSt_1_1 TorPl_1_2 TorPl_1_3 TorPl_1_4 GowSt_2_3"/>
    </vehicle>
    <vehicle id="bicycle54" type="bicycle_bicycle" depart="634.00">
        <route edges="HunSt_2_1 TorPl_1_2 TorPl_1_3 TorPl_1_4 GowSt_1_3"/>
    </vehicle>
    <vehicle id="bicycle55" type="bicycle_bicycle" depart="640.00">
        <route edges="CheMe_1_1 TorPl_1_3 TorPl_1_4 GowSt_1_3"/>
    </vehicle>
    <vehicle id="bicycle56" type="bicycle_bicycle" depart="652.00">
        <route edges="MalSt_2_1 TorPl_2_1 TorPl_2_2 GowSt_2_3"/>
    </vehicle>
    <vehicle id="bicycle57" type="bicycle_bicycle" depart="653.00">
        <route edges="GowSt_2_1 GowSt_2_2 GowSt_2_3"/>
    </vehicle>
    <vehicle id="bicycle58" type="bicycle_bicycle" depart="659.00">
        <route edges="GowSt_1_1 GowSt_1_2 TorPl_1_5 BynPl_1_1 BynPl_1_2 BynPl_1_3 BynPl_2_1 BynPl_2_2 BynPl_2_3 TorPl_2_1 TorPl_2_2 GowSt_2_3"/>
    </vehicle>
    <vehicle id="bicycle59" type="bicycle_bicycle" depart="665.00">
        <route edges="RidGa_2_1 TorPl_1_3 TorPl_1_4 TorPl_1_5 BynPl_1_1 BynPl_1_2 BynPl_1_3 GorSq_1_2 GorSq_1_3"/>
    </vehicle>
    <vehicle id="bicycle60" type="bicycle_bicycle" depart="669.00">
        <route edges="GorSq_2_1 GorSq_2_2 BynPl_2_1 BynPl_2_2 BynPl_2_3 TorPl_2_1 TorPl_2_2 GowSt_2_3"/>
    </vehicle>
    <vehicle id="bicycle61" type="bicycle_bicycle" depart="682.00">
        <route edges="HunSt_2_1 TorPl_2_5"/>
    </vehicle>
    <vehicle id="bicycle62" type="bicycle_bicycle" depart="683.00">
        <route edges="RidGa_2_1 TorPl_1_3 TorPl_1_4 TorPl_1_5 BynPl_1_1 BynPl_1_2 BynPl_1_3 GorSq_1_2 GorSq_1_3"/>
    </vehicle>
    <vehicle id="bicycle63" type="bicycle_bicycle" depart="691.00">
        <route edges="CheMe_1_1 TorPl_1_3 TorPl_1_4 TorPl_1_5 BynPl_1_1 BynPl_1_2 BynPl_1_3 GorSq_2_3"/>
    </vehicle>
    <vehicle id="bicycle64" type="bicycle_bicycle" depart="723.00">
        <route edges="HunSt_2_1 TorPl_1_2 TorPl_1_3 TorPl_1_4 TorPl_1_5 MalSt_1_1"/>
    </vehicle>
    <vehicle id="bicycle65" type="bicycle_bicycle" depart="737.00">
        <route edges="HunSt_1_1 TorPl_1_2 TorPl_1_3 TorPl_1_4 TorPl_1_5 BynPl_1_1 BynPl_1_2 BynPl_1_3 GorSq_1_2 GorSq_1_3"/>
    </vehicle>
    <vehicle id="bicycle66" type="bicycle_bicycle" depart="738.00">
        <route edges="MalSt_2_1 TorPl_2_1 TorPl_2_2 TorPl_2_3 TorPl_2_4 HunSt_1_2"/>
    </vehicle>
    <vehicle id="bicycle67" type="bicycle_bicycle" depart="745.00">
        <route edges="GorSq_1_1 BynPl_2_1 BynPl_2_2 BynPl_2_3 TorPl_2_1 TorPl_2_2 TorPl_2_3 TorPl_2_4 TorPl_2_5"/>
    </vehicle>
    <vehicle id="bicycle68" type="bicycle_bicycle" depart="750.00">
        <route edges="GorSq_2_1 GorSq_2_2 BynPl_2_1 BynPl_2_2 BynPl_2_3 MalSt_1_1"/>
    </vehicle>
    <vehicle id="bicycle69" type="bicycle_bicycle" depart="764.00">
        <route edges="GorSq_2_1 GorSq_2_2 GorSq_1_2 GorSq_1_3"/>
    </vehicle>
    <vehicle id="bicycle70" type="bicycle_bicycle" depart="765.00">
        <route edges="RidGa_2_1 TorPl_2_4 TorPl_2_5"/>
    </vehicle>
    <vehicle id="bicycle71" type="bicycle_bicycle" depart="768.00">
        <route edges="GowSt_2_1 GowSt_2_2 TorPl_1_5 MalSt_1_1"/>
    </vehicle>
    <vehicle id="bicycle72" type="bicycle_bicycle" depart="808.00">
        <route edges="CheMe_1_1 TorPl_1_3 TorPl_1_4 TorPl_1_5 MalSt_1_1"/>
    </vehicle>
    <vehicle id="bicycle73" type="bicycle_bicycle" depart="822.00">
        <route edges="HunSt_1_1 TorPl_2_5"/>
    </vehicle>
    <vehicle id="bicycle74" type="bicycle_bicycle" depart="822.00">
        <route edges="GowSt_2_1 GowSt_2_2 TorPl_1_5 BynPl_1_1 BynPl_1_2 BynPl_1_3 GorSq_1_2 GorSq_1_3"/>
    </vehicle>
    <vehicle id="bicycle75" type="bicycle_bicycle" depart="847.00">
        <route edges="GorSq_1_1 BynPl_2_1 BynPl_2_2 BynPl_2_3 TorPl_2_1 TorPl_2_2 TorPl_2_3 TorPl_2_4 TorPl_2_5"/>
    </vehicle>
    <vehicle id="bicycle76" type="bicycle_bicycle" depart="849.00">
        <route edges="GorSq_2_1 GorSq_2_2 BynPl_2_1 BynPl_2_2 BynPl_2_3 TorPl_2_1 TorPl_2_2 GowSt_1_3"/>
    </vehicle>
    <vehicle id="bicycle77" type="bicycle_bicycle" depart="856.00">
        <route edges="MalSt_2_1 TorPl_2_1 TorPl_2_2 TorPl_2_3 TorPl_2_4 TorPl_2_5"/>
    </vehicle>
    <vehicle id="bicycle78" type="bicycle_bicycle" depart="861.00">
        <route edges="HunSt_2_1 TorPl_1_2 TorPl_1_3 TorPl_1_4 TorPl_1_5 BynPl_1_1 BynPl_1_2 BynPl_1_3 GorSq_1_2 GorSq_1_3"/>
    </vehicle>
    <vehicle id="bicycle79" type="bicycle_bicycle" depart="867.00">
        <route edges="MalSt_2_1 BynPl_1_1 BynPl_1_2 BynPl_1_3 GorSq_2_3"/>
    </vehicle>
    <vehicle id="bicycle80" type="bicycle_bicycle" depart="875.00">
        <route edges="RidGa_2_1 TorPl_1_3 TorPl_1_4 GowSt_1_3"/>
    </vehicle>
    <vehicle id="bicycle81" type="bicycle_bicycle" depart="883.00">
        <route edges="HunSt_2_1 TorPl_2_5"/>
    </vehicle>
    <vehicle id="bicycle82" type="bicycle_bicycle" depart="905.00">
        <route edges="GowSt_2_1 GowSt_2_2 TorPl_2_3 TorPl_2_4 TorPl_2_5"/>
    </vehicle>
    <vehicle id="bicycle83" type="bicycle_bicycle" depart="914.00">
        <route edges="GowSt_1_1 GowSt_1_2 TorPl_2_3 TorPl_2_4 HunSt_1_2"/>
    </vehicle>
    <vehicle id="bicycle84" type="bicycle_bicycle" depart="933.00">
        <route edges="HunSt_1_1 TorPl_1_2 TorPl_1_3 TorPl_1_4 TorPl_1_5 BynPl_1_1 BynPl_1_2 BynPl_1_3 GorSq_2_3"/>
    </vehicle>
    <vehicle id="bicycle85" type="bicycle_bicycle" depart="959.00">
        <route edges="GorSq_1_1 BynPl_2_1 BynPl_2_2 BynPl_2_3 TorPl_2_1 TorPl_2_2 GowSt_1_3"/>
    </vehicle>
    <vehicle id="bicycle86" type="bicycle_bicycle" depart="991.00">
        <route edges="RidGa_2_1 TorPl_1_3 TorPl_1_4 TorPl_1_5 BynPl_1_1 BynPl_1_2 BynPl_1_3 GorSq_1_2 GorSq_1_3"/>
    </vehicle>
    <vehicle id="bicycle87" type="bicycle_bicycle" depart="996.00">
        <route edges="GorSq_1_1 BynPl_2_1 BynPl_2_2 BynPl_2_3 TorPl_2_1 TorPl_2_2 TorPl_2_3 TorPl_2_4 HunSt_1_2"/>
    </vehicle>
    <vehicle id="bicycle88" type="bicycle_bicycle" depart="1025.00">
        <route edges="GorSq_2_1 GorSq_2_2 BynPl_2_1 BynPl_2_2 BynPl_2_3 TorPl_2_1 TorPl_2_2 TorPl_2_3 TorPl_2_4 TorPl_2_5"/>
    </vehicle>
    <vehicle id="bicycle89" type="bicycle_bicycle" depart="1026.00">
        <route edges="GorSq_2_1 GorSq_2_2 BynPl_2_1 BynPl_2_2 BynPl_2_3 TorPl_2_1 TorPl_2_2 TorPl_2_3 TorPl_2_4 HunSt_1_2"/>
    </vehicle>
    <vehicle id="bicycle90" type="bicycle_bicycle" depart="1026.00">
        <route edges="GorSq_1_1 BynPl_2_1 BynPl_2_2 BynPl_2_3 TorPl_2_1 TorPl_2_2 TorPl_2_3 TorPl_2_4 TorPl_2_5"/>
    </vehicle>
    <vehicle id="bicycle91" type="bicycle_bicycle" depart="1057.00">
        <route edges="CheMe_1_1 TorPl_2_4 HunSt_1_2"/>
    </vehicle>
    <vehicle id="bicycle92" type="bicycle_bicycle" depart="1071.00">
        <route edges="TorPl_1_1 TorPl_1_2 TorPl_1_3 TorPl_1_4 TorPl_1_5 BynPl_1_1 BynPl_1_2 BynPl_1_3 GorSq_2_3"/>
    </vehicle>
    <vehicle id="bicycle93" type="bicycle_bicycle" depart="1091.00">
        <route edges="HunSt_2_1 TorPl_1_2 TorPl_1_3 TorPl_1_4 GowSt_1_3"/>
    </vehicle>
    <vehicle id="bicycle94" type="bicycle_bicycle" depart="1104.00">
        <route edges="RidGa_2_1 TorPl_1_3 TorPl_1_4 GowSt_1_3"/>
    </vehicle>
    <vehicle id="bicycle95" type="bicycle_bicycle" depart="1113.00">
        <route edges="GorSq_1_1 BynPl_2_1 BynPl_2_2 BynPl_2_3 TorPl_2_1 TorPl_2_2 TorPl_2_3 TorPl_2_4 HunSt_1_2"/>
    </vehicle>
    <vehicle id="bicycle96" type="bicycle_bicycle" depart="1166.00">
        <route edges="HunSt_2_1 TorPl_1_2 TorPl_1_3 TorPl_1_4 TorPl_1_5 BynPl_1_1 BynPl_1_2 BynPl_1_3 GorSq_1_2 GorSq_1_3"/>
    </vehicle>
    <vehicle id="bicycle97" type="bicycle_bicycle" depart="1170.00">
        <route edges="TorPl_1_1 TorPl_1_2 TorPl_1_3 TorPl_1_4 GowSt_2_3"/>
    </vehicle>
    <vehicle id="bicycle98" type="bicycle_bicycle" depart="1171.00">
        <route edges="HunSt_2_1 TorPl_1_2 TorPl_1_3 TorPl_1_4 TorPl_1_5 MalSt_1_1"/>
    </vehicle>
    <vehicle id="bicycle99" type="bicycle_bicycle" depart="1175.00">
        <route edges="GorSq_1_1 BynPl_2_1 BynPl_2_2 BynPl_2_3 TorPl_2_1 TorPl_2_2 TorPl_2_3 TorPl_2_4 HunSt_1_2"/>
    </vehicle>
    <vehicle id="bicycle100" type="bicycle_bicycle" depart="1178.00">
        <route edges="TorPl_1_1 TorPl_1_2 TorPl_1_3 TorPl_1_4 TorPl_1_5 MalSt_1_1"/>
    </vehicle>
    <vehicle id="bicycle101" type="bicycle_bicycle" depart="1195.00">
        <route edges="HunSt_1_1 TorPl_1_2 TorPl_1_3 TorPl_1_4 TorPl_1_5 BynPl_1_1 BynPl_1_2 BynPl_1_3 GorSq_2_3"/>
    </vehicle>
    <vehicle id="bicycle102" type="bicycle_bicycle" depart="1202.00">
        <route edges="GowSt_2_1 GowSt_2_2 TorPl_1_5 MalSt_1_1"/>
    </vehicle>
    <vehicle id="bicycle103" type="bicycle_bicycle" depart="1221.00">
        <route edges="GorSq_1_1 BynPl_2_1 BynPl_2_2 BynPl_2_3 BynPl_1_1 BynPl_1_2 BynPl_1_3 GorSq_2_3"/>
    </vehicle>
    <vehicle id="bicycle104" type="bicycle_bicycle" depart="1223.00">
        <route edges="GowSt_2_1 GowSt_2_2 TorPl_2_3 TorPl_2_4 HunSt_1_2"/>
    </vehicle>
    <vehicle id="bicycle105" type="bicycle_bicycle" depart="1238.00">
        <route edges="TorPl_1_1 TorPl_1_2 TorPl_1_3 TorPl_1_4 TorPl_2_3 TorPl_2_4 TorPl_2_5"/>
    </vehicle>
    <vehicle id="bicycle106" type="bicycle_bicycle" depart="1244.00">
        <route edges="HunSt_1_1 TorPl_2_5"/>
    </vehicle>
    <vehicle id="bicycle107" type="bicycle_bicycle" depart="1252.00">
        <route edges="RidGa_2_1 TorPl_1_3 TorPl_1_4 TorPl_1_5 MalSt_1_1"/>
    </vehicle>
    <vehicle id="bicycle108" type="bicycle_bicycle" depart="1254.00">
        <route edges="RidGa_2_1 TorPl_1_3 TorPl_1_4 TorPl_1_5 MalSt_1_1"/>
    </vehicle>
    <vehicle id="bicycle109" type="bicycle_bicycle" depart="1260.00">
        <route edges="GowSt_1_1 GowSt_1_2 TorPl_2_3 TorPl_2_4 HunSt_1_2"/>
    </vehicle>
    <vehicle id="bicycle110" type="bicycle_bicycle" depart="1282.00">
        <route edges="RidGa_2_1 TorPl_1_3 TorPl_1_4 TorPl_1_5 MalSt_1_1"/>
    </vehicle>
    <vehicle id="bicycle111" type="bicycle_bicycle" depart="1303.00">
        <route edges="MalSt_2_1 TorPl_2_1 TorPl_2_2 TorPl_1_5 MalSt_1_1"/>
    </vehicle>
    <vehicle id="bicycle112" type="bicycle_bicycle" depart="1310.00">
        <route edges="GowSt_1_1 GowSt_1_2 TorPl_1_5 BynPl_1_1 BynPl_1_2 BynPl_1_3 GorSq_2_3"/>
    </vehicle>
    <vehicle id="bicycle113" type="bicycle_bicycle" depart="1310.00">
        <route edges="TorPl_1_1 TorPl_1_2 TorPl_1_3 TorPl_1_4 TorPl_1_5 BynPl_1_1 BynPl_1_2 BynPl_1_3 GorSq_1_2 GorSq_1_3"/>
    </vehicle>
    <vehicle id="bicycle114" type="bicycle_bicycle" depart="1335.00">
        <route edges="GowSt_1_1 GowSt_1_2 TorPl_2_3 TorPl_2_4 TorPl_2_5"/>
    </vehicle>
    <vehicle id="bicycle115" type="bicycle_bicycle" depart="1345.00">
        <route edges="GorSq_1_1 BynPl_2_1 BynPl_2_2 BynPl_2_3 TorPl_2_1 TorPl_2_2 TorPl_2_3 TorPl_2_4 TorPl_2_5"/>
    </vehicle>
    <vehicle id="bicycle116" type="bicycle_bicycle" depart="1347.00">
        <route edges="GorSq_1_1 BynPl_2_1 BynPl_2_2 BynPl_2_3 BynPl_1_1 BynPl_1_2 BynPl_1_3 GorSq_2_3"/>
    </vehicle>
    <vehicle id="bicycle117" type="bicycle_bicycle" depart="1355.00">
        <route edges="GowSt_1_1 GowSt_1_2 TorPl_1_5 MalSt_1_1"/>
    </vehicle>
    <vehicle id="bicycle118" type="bicycle_bicycle" depart="1361.00">
        <route edges="TorPl_1_1 TorPl_1_2 TorPl_1_3 TorPl_1_4 TorPl_1_5 BynPl_1_1 BynPl_1_2 BynPl_1_3 GorSq_2_3"/>
    </vehicle>
    <vehicle id="bicycle119" type="bicycle_bicycle" depart="1433.00">
        <route edges="TorPl_1_1 TorPl_1_2 TorPl_1_3 TorPl_1_4 TorPl_2_3 TorPl_2_4 TorPl_2_5"/>
    </vehicle>
    <vehicle id="bicycle120" type="bicycle_bicycle" depart="1437.00">
        <route edges="GowSt_2_1 GowSt_2_2 TorPl_1_5 MalSt_1_1"/>
    </vehicle>
    <vehicle id="bicycle121" type="bicycle_bicycle" depart="1456.00">
        <route edges="HunSt_2_1 TorPl_1_2 TorPl_1_3 TorPl_1_4 TorPl_1_5 MalSt_1_1"/>
    </vehicle>
    <vehicle id="bicycle122" type="bicycle_bicycle" depart="1466.00">
        <route edges="HunSt_1_1 TorPl_1_2 TorPl_1_3 TorPl_1_4 GowSt_2_3"/>
    </vehicle>
    <vehicle id="bicycle123" type="bicycle_bicycle" depart="1474.00">
        <route edges="GowSt_1_1 GowSt_1_2 GowSt_1_3"/>
    </vehicle>
    <vehicle id="bicycle124" type="bicycle_bicycle" depart="1474.00">
        <route edges="GowSt_1_1 GowSt_1_2 TorPl_1_5 BynPl_1_1 BynPl_1_2 BynPl_1_3 GorSq_1_2 GorSq_1_3"/>
    </vehicle>
    <vehicle id="bicycle125" type="bicycle_bicycle" depart="1481.00">
        <route edges="HunSt_1_1 TorPl_1_2 TorPl_1_3 TorPl_1_4 GowSt_2_3"/>
    </vehicle>
    <vehicle id="bicycle126" type="bicycle_bicycle" depart="1497.00">
        <route edges="GorSq_2_1 GorSq_2_2 BynPl_2_1 BynPl_2_2 BynPl_2_3 MalSt_1_1"/>
    </vehicle>
    <vehicle id="bicycle127" type="bicycle_bicycle" depart="1515.00">
        <route edges="HunSt_1_1 TorPl_1_2 TorPl_1_3 TorPl_1_4 TorPl_1_5 BynPl_1_1 BynPl_1_2 BynPl_1_3 GorSq_1_2 GorSq_1_3"/>
    </vehicle>
    <vehicle id="bicycle128" type="bicycle_bicycle" depart="1519.00">
        <route edges="MalSt_2_1 TorPl_2_1 TorPl_2_2 TorPl_2_3 TorPl_2_4 HunSt_1_2"/>
    </vehicle>
    <vehicle id="bicycle129" type="bicycle_bicycle" depart="1531.00">
        <route edges="GowSt_1_1 GowSt_1_2 TorPl_2_3 TorPl_2_4 TorPl_2_5"/>
    </vehicle>
    <vehicle id="bicycle130" type="bicycle_bicycle" depart="1542.00">
        <route edges="GorSq_2_1 GorSq_2_2 BynPl_2_1 BynPl_2_2 BynPl_2_3 TorPl_2_1 TorPl_2_2 TorPl_2_3 TorPl_2_4 HunSt_1_2"/>
    </vehicle>
    <vehicle id="bicycle131" type="bicycle_bicycle" depart="1570.00">
        <route edges="GowSt_1_1 GowSt_1_2 TorPl_2_3 TorPl_2_4 HunSt_1_2"/>
    </vehicle>
    <vehicle id="bicycle132" type="bicycle_bicycle" depart="1578.00">
        <route edges="GowSt_1_1 GowSt_1_2 GowSt_1_3"/>
    </vehicle>
    <vehicle id="bicycle133" type="bicycle_bicycle" depart="1583.00">
        <route edges="GorSq_2_1 GorSq_2_2 BynPl_2_1 BynPl_2_2 BynPl_2_3 TorPl_2_1 TorPl_2_2 TorPl_2_3 TorPl_2_4 HunSt_1_2"/>
    </vehicle>
    <vehicle id="bicycle134" type="bicycle_bicycle" depart="1590.00">
        <route edges="MalSt_2_1 TorPl_2_1 TorPl_2_2 TorPl_2_3 TorPl_2_4 HunSt_1_2"/>
    </vehicle>
    <vehicle id="bicycle135" type="bicycle_bicycle" depart="1607.00">
        <route edges="HunSt_1_1 TorPl_1_2 TorPl_1_3 TorPl_1_4 TorPl_1_5 BynPl_1_1 BynPl_1_2 BynPl_1_3 GorSq_2_3"/>
    </vehicle>
    <vehicle id="bicycle136" type="bicycle_bicycle" depart="1622.00">
        <route edges="GowSt_2_1 GowSt_2_2 TorPl_2_3 TorPl_2_4 TorPl_2_5"/>
    </vehicle>
    <vehicle id="bicycle137" type="bicycle_bicycle" depart="1626.00">
        <route edges="TorPl_1_1 HunSt_1_2"/>
    </vehicle>
    <vehicle id="bicycle138" type="bicycle_bicycle" depart="1628.00">
        <route edges="CheMe_1_1 TorPl_1_3 TorPl_1_4 TorPl_1_5 BynPl_1_1 BynPl_1_2 BynPl_1_3 GorSq_1_2 GorSq_1_3"/>
    </vehicle>
    <vehicle id="bicycle139" type="bicycle_bicycle" depart="1638.00">
        <route edges="CheMe_1_1 TorPl_1_3 TorPl_1_4 GowSt_1_3"/>
    </vehicle>
    <vehicle id="bicycle140" type="bicycle_bicycle" depart="1655.00">
        <route edges="GorSq_2_1 GorSq_2_2 GorSq_2_3"/>
    </vehicle>
    <vehicle id="bicycle141" type="bicycle_bicycle" depart="1657.00">
        <route edges="CheMe_1_1 TorPl_1_3 TorPl_1_4 GowSt_1_3"/>
    </vehicle>
    <vehicle id="bicycle142" type="bicycle_bicycle" depart="1669.00">
        <route edges="GorSq_2_1 GorSq_2_2 GorSq_2_3"/>
    </vehicle>
    <vehicle id="bicycle143" type="bicycle_bicycle" depart="1669.00">
        <route edges="HunSt_2_1 TorPl_1_2 TorPl_1_3 TorPl_1_4 TorPl_1_5 BynPl_1_1 BynPl_1_2 BynPl_1_3 GorSq_2_3"/>
    </vehicle>
    <vehicle id="bicycle144" type="bicycle_bicycle" depart="1672.00">
        <route edges="TorPl_1_1 TorPl_1_2 TorPl_1_3 TorPl_1_4 TorPl_1_5 MalSt_1_1"/>
    </vehicle>
    <vehicle id="bicycle145" type="bicycle_bicycle" depart="1682.00">
        <route edges="GorSq_2_1 GorSq_2_2 GorSq_2_3"/>
    </vehicle>
    <vehicle id="bicycle146" type="bicycle_bicycle" depart="1694.00">
        <route edges="RidGa_2_1 TorPl_2_4 HunSt_1_2"/>
    </vehicle>
    <vehicle id="bicycle147" type="bicycle_bicycle" depart="1705.00">
        <route edges="HunSt_1_1 TorPl_1_2 TorPl_1_3 TorPl_1_4 TorPl_1_5 MalSt_1_1"/>
    </vehicle>
    <vehicle id="bicycle148" type="bicycle_bicycle" depart="1718.00">
        <route edges="GowSt_1_1 GowSt_1_2 TorPl_2_3 TorPl_2_4 TorPl_2_5"/>
    </vehicle>
    <vehicle id="bicycle149" type="bicycle_bicycle" depart="1719.00">
        <route edges="CheMe_1_1 TorPl_1_3 TorPl_1_4 GowSt_2_3"/>
    </vehicle>
    <vehicle id="bicycle150" type="bicycle_bicycle" depart="1744.00">
        <route edges="HunSt_1_1 TorPl_1_2 TorPl_1_3 TorPl_1_4 TorPl_1_5 MalSt_1_1"/>
    </vehicle>
    <vehicle id="bicycle151" type="bicycle_bicycle" depart="1750.00">
        <route edges="TorPl_1_1 TorPl_1_2 TorPl_1_3 TorPl_1_4 GowSt_2_3"/>
    </vehicle>
    <vehicle id="bicycle152" type="bicycle_bicycle" depart="1753.00">
        <route edges="GorSq_1_1 BynPl_2_1 BynPl_2_2 BynPl_2_3 BynPl_1_1 BynPl_1_2 BynPl_1_3 GorSq_2_3"/>
    </vehicle>
    <vehicle id="bicycle153" type="bicycle_bicycle" depart="1754.00">
        <route edges="GowSt_2_1 GowSt_2_2 TorPl_1_5 MalSt_1_1"/>
    </vehicle>
    <vehicle id="bicycle154" type="bicycle_bicycle" depart="1756.00">
        <route edges="MalSt_2_1 BynPl_1_1 BynPl_1_2 BynPl_1_3 GorSq_1_2 GorSq_1_3"/>
    </vehicle>
    <vehicle id="bicycle155" type="bicycle_bicycle" depart="1758.00">
        <route edges="HunSt_1_1 HunSt_1_2"/>
    </vehicle>
    <vehicle id="bicycle156" type="bicycle_bicycle" depart="1765.00">
        <route edges="HunSt_1_1 TorPl_1_2 TorPl_1_3 TorPl_1_4 TorPl_1_5 BynPl_1_1 BynPl_1_2 BynPl_1_3 GorSq_2_3"/>
    </vehicle>
    <vehicle id="bicycle157" type="bicycle_bicycle" depart="1776.00">
        <route edges="GowSt_2_1 GowSt_2_2 TorPl_2_3 TorPl_2_4 TorPl_2_5"/>
    </vehicle>
    <vehicle id="bicycle158" type="bicycle_bicycle" depart="1779.00">
        <route edges="RidGa_2_1 TorPl_2_4 HunSt_1_2"/>
    </vehicle>
    <vehicle id="bicycle159" type="bicycle_bicycle" depart="1783.00">
        <route edges="MalSt_2_1 BynPl_1_1 BynPl_1_2 BynPl_1_3 GorSq_1_2 GorSq_1_3"/>
    </vehicle>
    <vehicle id="bicycle160" type="bicycle_bicycle" depart="1785.00">
        <route edges="GorSq_2_1 GorSq_2_2 BynPl_2_1 BynPl_2_2 BynPl_2_3 TorPl_2_1 TorPl_2_2 GowSt_2_3"/>
    </vehicle>
    <vehicle id="bicycle161" type="bicycle_bicycle" depart="1791.00">
        <route edges="GorSq_1_1 BynPl_2_1 BynPl_2_2 BynPl_2_3 TorPl_2_1 TorPl_2_2 GowSt_1_3"/>
    </vehicle>
    <vehicle id="bicycle162" type="bicycle_bicycle" depart="1832.00">
        <route edges="GorSq_2_1 GorSq_2_2 BynPl_2_1 BynPl_2_2 BynPl_2_3 TorPl_2_1 TorPl_2_2 GowSt_1_3"/>
    </vehicle>
    <vehicle id="bicycle163" type="bicycle_bicycle" depart="1852.00">
        <route edges="HunSt_2_1 TorPl_1_2 TorPl_1_3 TorPl_1_4 TorPl_1_5 BynPl_1_1 BynPl_1_2 BynPl_1_3 GorSq_2_3"/>
    </vehicle>
    <vehicle id="bicycle164" type="bicycle_bicycle" depart="1865.00">
        <route edges="CheMe_1_1 TorPl_2_4 TorPl_2_5"/>
    </vehicle>
    <vehicle id="bicycle165" type="bicycle_bicycle" depart="1872.00">
        <route edges="GowSt_2_1 GowSt_2_2 TorPl_1_5 BynPl_1_1 BynPl_1_2 BynPl_1_3 BynPl_2_1 BynPl_2_2 BynPl_2_3 TorPl_2_1 TorPl_2_2 GowSt_1_3"/>
    </vehicle>
    <vehicle id="bicycle166" type="bicycle_bicycle" depart="1875.00">
        <route edges="GowSt_1_1 GowSt_1_2 GowSt_1_3"/>
    </vehicle>
    <vehicle id="bicycle167" type="bicycle_bicycle" depart="1878.00">