<?xml version="1.0" encoding="UTF-8"?>

<!-- generated on 2025-11-16 13:55:11.260600 by randomTrips.py v1_24_0+0000-b72eb3fabc8
<configuration>
    <net-file value="../networks/demo/main.net.xml"/>
    <output-trip-file value="../routes/demo/bicycle.trips.xml"/>
    <route-file value="../routes/demo/bicycle.rou.xml"/>
    <prefix value="bicycle"/>
    <vehicle-class value="bicycle"/>
    <fringe-factor value="max"/>
    <period value="10.0"/>
    <binomial value="100"/>
</configuration>
-->

<!-- generated on 2025-11-16 13:55:11 by Eclipse SUMO duarouter Version 1.24.0
<duarouterConfiguration xmlns:xsi="http://www.w3.org/2001/XMLSchema-instance" xsi:noNamespaceSchemaLocation="http://sumo.dlr.de/xsd/duarouterConfiguration.xsd">

    <input>
        <net-file value="../networks/demo/main.net.xml"/>
        <route-files value="../routes/demo/bicycle.trips.xml"/>
    </input>

    <output>
        <output-file value="../routes/demo/bicycle.rou.xml"/>
        <alternatives-output value="NUL"/>
    </output>

    <time>
        <begin value="0"/>
        <end value="3600.0"/>
    </time>

    <report>
        <no-warnings value="true"/>
        <ignore-errors value="true"/>
        <no-step-log value="true"/>
    </report>

</duarouterConfiguration>
-->

<routes xmlns:xsi="http://www.w3.org/2001/XMLSchema-instance" xsi:noNamespaceSchemaLocation="http://sumo.dlr.de/xsd/routes_file.xsd">
    <vType id="bicycle_bicycle" vClass="bicycle"/>
    <vehicle id="bicycle0" type="bicycle_bicycle" depart="1.00">
        <route edges="GowSt_1_1 TorPl_1_4 BynPl_1_1 BynPl_1_2 BynPl_1_3 GorSq_1_2 GorSq_1_3"/>
    </vehicle>
    <vehicle id="bicycle1" type="bicycle_bicycle" depart="3.00">
        <route edges="GorSq_2_1 GorSq_2_2 BynPl_2_1 BynPl_2_2 BynPl_2_3 TorPl_2_1 GowSt_2_2"/>
    </vehicle>
    <vehicle id="bicycle2" type="bicycle_bicycle" depart="25.00">
        <route edges="TorPl_1_1 TorPl_1_2 TorPl_1_3 TorPl_1_4 BynPl_1_1 BynPl_1_2 BynPl_1_3 GorSq_2_3"/>
    </vehicle>
    <vehicle id="bicycle3" type="bicycle_bicycle" depart="29.00">
        <route edges="TorPl_1_1 TorPl_1_2 TorPl_1_3 TorPl_1_4 BynPl_1_1 BynPl_1_2 BynPl_1_3 GorSq_2_3"/>
    </vehicle>
    <vehicle id="bicycle4" type="bicycle_bicycle" depart="35.00">
        <route edges="CheMe_1_1 TorPl_2_3 HunSt_1_2"/>
    </vehicle>
    <vehicle id="bicycle5" type="bicycle_bicycle" depart="40.00">
        <route edges="GorSq_1_1 BynPl_2_1 BynPl_2_2 BynPl_2_3 TorPl_2_1 TorPl_2_2 TorPl_2_3 TorPl_2_4"/>
    </vehicle>
    <vehicle id="bicycle6" type="bicycle_bicycle" depart="43.00">
        <route edges="RidGa_2_1 TorPl_1_3 TorPl_1_4 MalSt_1_1"/>
    </vehicle>
    <vehicle id="bicycle7" type="bicycle_bicycle" depart="44.00">
        <route edges="HunSt_2_1 TorPl_1_2 TorPl_1_3 GowSt_1_2"/>
    </vehicle>
    <vehicle id="bicycle8" type="bicycle_bicycle" depart="52.00">
        <route edges="GorSq_1_1 BynPl_2_1 BynPl_2_2 BynPl_2_3 BynPl_1_1 BynPl_1_2 BynPl_1_3 GorSq_2_3"/>
    </vehicle>
    <vehicle id="bicycle9" type="bicycle_bicycle" depart="71.00">
        <route edges="TorPl_1_1 TorPl_1_2 TorPl_1_3 GowSt_2_2"/>
    </vehicle>
    <vehicle id="bicycle10" type="bicycle_bicycle" depart="82.00">
        <route edges="GowSt_1_1 TorPl_2_2 TorPl_2_3 TorPl_2_4"/>
    </vehicle>
    <vehicle id="bicycle11" type="bicycle_bicycle" depart="96.00">
        <route edges="GorSq_2_1 GorSq_2_2 BynPl_2_1 BynPl_2_2 BynPl_2_3 TorPl_2_1 GowSt_1_2"/>
    </vehicle>
    <vehicle id="bicycle12" type="bicycle_bicycle" depart="97.00">
        <route edges="HunSt_2_1 TorPl_1_2 TorPl_1_3 TorPl_1_4 BynPl_1_1 BynPl_1_2 BynPl_1_3 GorSq_1_2 GorSq_1_3"/>
    </vehicle>
    <vehicle id="bicycle13" type="bicycle_bicycle" depart="109.00">
        <route edges="GorSq_1_1 BynPl_2_1 BynPl_2_2 BynPl_2_3 TorPl_2_1 TorPl_2_2 TorPl_2_3 TorPl_2_4"/>
    </vehicle>
    <vehicle id="bicycle14" type="bicycle_bicycle" depart="114.00">
        <route edges="MalSt_2_1 TorPl_2_1 TorPl_2_2 TorPl_2_3 HunSt_1_2"/>
    </vehicle>
    <vehicle id="bicycle15" type="bicycle_bicycle" depart="118.00">
        <route edges="GorSq_2_1 GorSq_2_2 BynPl_2_1 BynPl_2_2 BynPl_2_3 TorPl_2_1 GowSt_2_2"/>
    </vehicle>
    <vehicle id="bicycle16" type="bicycle_bicycle" depart="130.00">
        <route edges="CheMe_1_1 TorPl_1_3 TorPl_1_4 BynPl_1_1 BynPl_1_2 BynPl_1_3 GorSq_1_2 GorSq_1_3"/>
    </vehicle>
    <vehicle id="bicycle17" type="bicycle_bicycle" depart="130.00">
        <route edges="GowSt_2_1 TorPl_1_4 MalSt_1_1"/>
    </vehicle>
    <vehicle id="bicycle18" type="bicycle_bicycle" depart="131.00">
        <route edges="MalSt_2_1 TorPl_2_1 GowSt_2_2"/>
    </vehicle>
    <vehicle id="bicycle19" type="bicycle_bicycle" depart="136.00">
        <route edges="GowSt_2_1 TorPl_1_4 MalSt_1_1"/>
    </vehicle>
    <vehicle id="bicycle20" type="bicycle_bicycle" depart="137.00">
        <route edges="CheMe_1_1 TorPl_2_3 TorPl_2_4"/>
    </vehicle>
    <vehicle id="bicycle21" type="bicycle_bicycle" depart="144.00">
        <route edges="HunSt_2_1 TorPl_2_4"/>
    </vehicle>
    <vehicle id="bicycle22" type="bicycle_bicycle" depart="150.00">
        <route edges="HunSt_2_1 TorPl_1_2 TorPl_1_3 GowSt_2_2"/>
    </vehicle>
    <vehicle id="bicycle23" type="bicycle_bicycle" depart="152.00">
        <route edges="HunSt_2_1 TorPl_1_2 TorPl_1_3 TorPl_2_2 TorPl_2_3 HunSt_1_2"/>
    </vehicle>
    <vehicle id="bicycle24" type="bicycle_bicycle" depart="169.00">
        <route edges="CheMe_1_1 TorPl_1_3 TorPl_1_4 BynPl_1_1 BynPl_1_2 BynPl_1_3 GorSq_1_2 GorSq_1_3"/>
    </vehicle>
    <vehicle id="bicycle25" type="bicycle_bicycle" depart="176.00">
        <route edges="GorSq_1_1 BynPl_2_1 BynPl_2_2 BynPl_2_3 BynPl_1_1 BynPl_1_2 BynPl_1_3 GorSq_2_3"/>
    </vehicle>
    <vehicle id="bicycle26" type="bicycle_bicycle" depart="182.00">
        <route edges="MalSt_2_1 BynPl_1_1 BynPl_1_2 BynPl_1_3 GorSq_2_3"/>
    </vehicle>
    <vehicle id="bicycle27" type="bicycle_bicycle" depart="185.00">
        <route edges="RidGa_2_1 TorPl_2_3 HunSt_1_2"/>
    </vehicle>
    <vehicle id="bicycle28" type="bicycle_bicycle" depart="207.00">
        <route edges="TorPl_1_1 TorPl_1_2 TorPl_1_3 GowSt_1_2"/>
    </vehicle>
    <vehicle id="bicycle29" type="bicycle_bicycle" depart="210.00">
        <route edges="GorSq_2_1 GorSq_2_2 BynPl_2_1 BynPl_2_2 BynPl_2_3 TorPl_2_1 GowSt_2_2"/>
    </vehicle>
    <vehicle id="bicycle30" type="bicycle_bicycle" depart="222.00">
        <route edges="GowSt_2_1 TorPl_1_4 BynPl_1_1 BynPl_1_2 BynPl_1_3 GorSq_2_3"/>
    </vehicle>
    <vehicle id="bicycle31" type="bicycle_bicycle" depart="232.00">
        <route edges="GorSq_1_1 BynPl_2_1 BynPl_2_2 BynPl_2_3 TorPl_2_1 GowSt_1_2"/>
    </vehicle>
    <vehicle id="bicycle32" type="bicycle_bicycle" depart="237.00">
        <route edges="GorSq_2_1 GorSq_2_2 BynPl_2_1 BynPl_2_2 BynPl_2_3 TorPl_2_1 TorPl_2_2 TorPl_2_3 HunSt_1_2"/>
    </vehicle>
    <vehicle id="bicycle33" type="bicycle_bicycle" depart="241.00">
        <route edges="HunSt_2_1 TorPl_1_2 TorPl_1_3 GowSt_1_2"/>
    </vehicle>
    <vehicle id="bicycle34" type="bicycle_bicycle" depart="266.00">
        <route edges="GowSt_2_1 TorPl_1_4 BynPl_1_1 BynPl_1_2 BynPl_1_3 GorSq_1_2 GorSq_1_3"/>
    </vehicle>
    <vehicle id="bicycle35" type="bicycle_bicycle" depart="281.00">
        <route edges="HunSt_2_1 TorPl_1_2 TorPl_1_3 TorPl_1_4 BynPl_1_1 BynPl_1_2 BynPl_1_3 GorSq_1_2 GorSq_1_3"/>
    </vehicle>
    <vehicle id="bicycle36" type="bicycle_bicycle" depart="294.00">
        <route edges="HunSt_1_1 TorPl_1_2 TorPl_1_3 TorPl_1_4 BynPl_1_1 BynPl_1_2 BynPl_1_3 GorSq_2_3"/>
    </vehicle>
    <vehicle id="bicycle37" type="bicycle_bicycle" depart="296.00">
        <route edges="GorSq_2_1 GorSq_2_2 BynPl_2_1 BynPl_2_2 BynPl_2_3 MalSt_1_1"/>
    </vehicle>
    <vehicle id="bicycle38" type="bicycle_bicycle" depart="296.00">
        <route edges="RidGa_2_1 TorPl_1_3 TorPl_1_4 BynPl_1_1 BynPl_1_2 BynPl_1_3 GorSq_2_3"/>
    </vehicle>
    <vehicle id="bicycle39" type="bicycle_bicycle" depart="326.00">
        <route edges="CheMe_1_1 TorPl_1_3 TorPl_1_4 BynPl_1_1 BynPl_1_2 BynPl_1_3 GorSq_2_3"/>
    </vehicle>
    <vehicle id="bicycle40" type="bicycle_bicycle" depart="328.00">
        <route edges="RidGa_2_1 TorPl_2_3 TorPl_2_4"/>
    </vehicle>
    <vehicle id="bicycle41" type="bicycle_bicycle" depart="348.00">
        <route edges="GorSq_1_1 BynPl_2_1 BynPl_2_2 BynPl_2_3 TorPl_2_1 TorPl_2_2 TorPl_2_3 TorPl_2_4"/>
    </vehicle>
    <vehicle id="bicycle42" type="bicycle_bicycle" depart="348.00">
        <route edges="HunSt_2_1 TorPl_1_2 TorPl_1_3 TorPl_2_2 TorPl_2_3 HunSt_1_2"/>
    </vehicle>
    <vehicle id="bicycle43" type="bicycle_bicycle" depart="376.00">
        <route edges="GowSt_2_1 TorPl_2_2 TorPl_2_3 HunSt_1_2"/>
    </vehicle>
    <vehicle id="bicycle44" type="bicycle_bicycle" depart="399.00">
        <route edges="GowSt_2_1 GowSt_2_2"/>
    </vehicle>
    <vehicle id="bicycle45" type="bicycle_bicycle" depart="411.00">
        <route edges="GorSq_2_1 GorSq_2_2 GorSq_1_2 GorSq_1_3"/>
    </vehicle>
    <vehicle id="bicycle46" type="bicycle_bicycle" depart="414.00">
        <route edges="MalSt_2_1 TorPl_2_1 GowSt_1_2"/>
    </vehicle>
    <vehicle id="bicycle47" type="bicycle_bicycle" depart="418.00">
        <route edges="CheMe_1_1 TorPl_1_3 TorPl_1_4 BynPl_1_1 BynPl_1_2 BynPl_1_3 GorSq_1_2 GorSq_1_3"/>
    </vehicle>
    <vehicle id="bicycle48" type="bicycle_bicycle" depart="423.00">
        <route edges="GowSt_1_1 TorPl_1_4 BynPl_1_1 BynPl_1_2 BynPl_1_3 GorSq_2_3"/>
    </vehicle>
    <vehicle id="bicycle49" type="bicycle_bicycle" depart="428.00">
        <route edges="HunSt_2_1 TorPl_1_2 TorPl_1_3 TorPl_1_4 BynPl_1_1 BynPl_1_2 BynPl_1_3 GorSq_1_2 GorSq_1_3"/>
    </vehicle>
    <vehicle id="bicycle50" type="bicycle_bicycle" depart="429.00">
        <route edges="GowSt_2_1 TorPl_2_2 TorPl_2_3 HunSt_1_2"/>
    </vehicle>
    <vehicle id="bicycle51" type="bicycle_bicycle" depart="431.00">
        <route edges="GorSq_1_1 BynPl_2_1 BynPl_2_2 BynPl_2_3 MalSt_1_1"/>
    </vehicle>
    <vehicle id="bicycle52" type="bicycle_bicycle" depart="437.00">
        <route edges="MalSt_2_1 BynPl_1_1 BynPl_1_2 BynPl_1_3 GorSq_2_3"/>
    </vehicle>
    <vehicle id="bicycle53" type="bicycle_bicycle" depart="455.00">
        <route edges="CheMe_1_1 TorPl_2_3 HunSt_1_2"/>
    </vehicle>
    <vehicle id="bicycle54" type="bicycle_bicycle" depart="463.00">
        <route edges="GowSt_1_1 TorPl_1_4 BynPl_1_1 BynPl_1_2 BynPl_1_3 BynPl_2_1 BynPl_2_2 BynPl_2_3 TorPl_2_1 GowSt_2_2"/>
    </vehicle>
    <vehicle id="bicycle55" type="bicycle_bicycle" depart="477.00">
        <route edges="TorPl_1_1 TorPl_1_2 TorPl_1_3 TorPl_1_4 BynPl_1_1 BynPl_1_2 BynPl_1_3 GorSq_2_3"/>
    </vehicle>
    <vehicle id="bicycle56" type="bicycle_bicycle" depart="496.00">
        <route edges="RidGa_2_1 TorPl_1_3 GowSt_2_2"/>
    </vehicle>
    <vehicle id="bicycle57" type="bicycle_bicycle" depart="531.00">
        <route edges="CheMe_1_1 TorPl_2_3 TorPl_2_4"/>
    </vehicle>
    <vehicle id="bicycle58" type="bicycle_bicycle" depart="548.00">
        <route edges="MalSt_2_1 TorPl_2_1 TorPl_2_2 TorPl_2_3 TorPl_2_4"/>
    </vehicle>
    <vehicle id="bicycle59" type="bicycle_bicycle" depart="554.00">
        <route edges="MalSt_2_1 TorPl_2_1 GowSt_2_2"/>
    </vehicle>
    <vehicle id="bicycle60" type="bicycle_bicycle" depart="569.00">
        <route edges="GowSt_2_1 TorPl_2_2 TorPl_2_3 HunSt_1_2"/>
    </vehicle>
    <vehicle id="bicycle61" type="bicycle_bicycle" depart="579.00">
        <route edges="GorSq_1_1 GorSq_1_2 GorSq_1_3"/>
    </vehicle>
    <vehicle id="bicycle62" type="bicycle_bicycle" depart="583.00">
        <route edges="GowSt_1_1 TorPl_1_4 BynPl_1_1 BynPl_1_2 BynPl_1_3 BynPl_2_1 BynPl_2_2 BynPl_2_3 TorPl_2_1 GowSt_2_2"/>
    </vehicle>
    <vehicle id="bicycle63" type="bicycle_bicycle" depart="585.00">
        <route edges="HunSt_1_1 TorPl_1_2 TorPl_1_3 GowSt_2_2"/>
    </vehicle>
    <vehicle id="bicycle64" type="bicycle_bicycle" depart="608.00">
        <route edges="RidGa_2_1 TorPl_2_3 TorPl_2_4"/>
    </vehicle>
    <vehicle id="bicycle65" type="bicycle_bicycle" depart="612.00">
        <route edges="RidGa_2_1 TorPl_1_3 GowSt_1_2"/>
    </vehicle>
    <vehicle id="bicycle66" type="bicycle_bicycle" depart="614.00">
        <route edges="GorSq_1_1 BynPl_2_1 BynPl_2_2 BynPl_2_3 MalSt_1_1"/>
    </vehicle>
    <vehicle id="bicycle67" type="bicycle_bicycle" depart="654.00">
        <route edges="HunSt_2_1 TorPl_1_2 TorPl_1_3 GowSt_2_2"/>
    </vehicle>
    <vehicle id="bicycle68" type="bicycle_bicycle" depart="659.00">
        <route edges="HunSt_1_1 TorPl_1_2 TorPl_1_3 GowSt_2_2"/>
    </vehicle>
    <vehicle id="bicycle69" type="bicycle_bicycle" depart="664.00">
        <route edges="GowSt_1_1 TorPl_1_4 BynPl_1_1 BynPl_1_2 BynPl_1_3 BynPl_2_1 BynPl_2_2 BynPl_2_3 TorPl_2_1 GowSt_2_2"/>
    </vehicle>
    <vehicle id="bicycle70" type="bicycle_bicycle" depart="666.00">
        <route edges="RidGa_2_1 TorPl_1_3 TorPl_1_4 BynPl_1_1 BynPl_1_2 BynPl_1_3 GorSq_1_2 GorSq_1_3"/>
    </vehicle>
    <vehicle id="bicycle71" type="bicycle_bicycle" depart="678.00">
        <route edges="TorPl_1_1 TorPl_1_2 TorPl_1_3 GowSt_1_2"/>
    </vehicle>
    <vehicle id="bicycle72" type="bicycle_bicycle" depart="699.00">
        <route edges="GowSt_1_1 TorPl_1_4 MalSt_1_1"/>
    </vehicle>
    <vehicle id="bicycle73" type="bicycle_bicycle" depart="701.00">
        <route edges="HunSt_2_1 TorPl_1_2 TorPl_1_3 TorPl_1_4 MalSt_1_1"/>
    </vehicle>
    <vehicle id="bicycle74" type="bicycle_bicycle" depart="709.00">
        <route edges="CheMe_1_1 TorPl_1_3 TorPl_1_4 BynPl_1_1 BynPl_1_2 BynPl_1_3 GorSq_1_2 GorSq_1_3"/>
    </vehicle>
    <vehicle id="bicycle75" type="bicycle_bicycle" depart="728.00">
        <route edges="GowSt_2_1 TorPl_2_2 TorPl_2_3 HunSt_1_2"/>
    </vehicle>
    <vehicle id="bicycle76" type="bicycle_bicycle" depart="745.00">
        <route edges="HunSt_2_1 TorPl_1_2 TorPl_1_3 GowSt_1_2"/>
    </vehicle>
    <vehicle id="bicycle77" type="bicycle_bicycle" depart="778.00">
        <route edges="GorSq_1_1 BynPl_2_1 BynPl_2_2 BynPl_2_3 TorPl_2_1 TorPl_2_2 TorPl_2_3 HunSt_1_2"/>
    </vehicle>
    <vehicle id="bicycle78" type="bicycle_bicycle" depart="779.00">
        <route edges="RidGa_2_1 TorPl_2_3 TorPl_2_4"/>
    </vehicle>
    <vehicle id="bicycle79" type="bicycle_bicycle" depart="788.00">
        <route edges="GorSq_2_1 GorSq_2_2 GorSq_2_3"/>
    </vehicle>
    <vehicle id="bicycle80" type="bicycle_bicycle" depart="791.00">
        <route edges="GorSq_2_1 GorSq_2_2 BynPl_2_1 BynPl_2_2 BynPl_2_3 TorPl_2_1 GowSt_2_2"/>
    </vehicle>
    <vehicle id="bicycle81" type="bicycle_bicycle" depart="793.00">
        <route edges="MalSt_2_1 TorPl_2_1 TorPl_2_2 TorPl_2_3 TorPl_2_4"/>
    </vehicle>
    <vehicle id="bicycle82" type="bicycle_bicycle" depart="794.00">
        <route edges="HunSt_1_1 TorPl_1_2 TorPl_1_3 TorPl_1_4 BynPl_1_1 BynPl_1_2 BynPl_1_3 GorSq_2_3"/>
    </vehicle>
    <vehicle id="bicycle83" type="bicycle_bicycle" depart="797.00">
        <route edges="HunSt_2_1 TorPl_1_2 TorPl_1_3 GowSt_2_2"/>
    </vehicle>
    <vehicle id="bicycle84" type="bicycle_bicycle" depart="797.00">
        <route edges="MalSt_2_1 TorPl_2_1 TorPl_2_2 TorPl_2_3 TorPl_2_4"/>
    </vehicle>
    <vehicle id="bicycle85" type="bicycle_bicycle" depart="838.00">
        <route edges="GowSt_2_1 TorPl_1_4 BynPl_1_1 BynPl_1_2 BynPl_1_3 GorSq_1_2 GorSq_1_3"/>
    </vehicle>
    <vehicle id="bicycle86" type="bicycle_bicycle" depart="850.00">
        <route edges="HunSt_2_1 TorPl_2_4"/>
    </vehicle>
    <vehicle id="bicycle87" type="bicycle_bicycle" depart="850.00">
        <route edges="GorSq_1_1 BynPl_2_1 BynPl_2_2 BynPl_2_3 TorPl_2_1 GowSt_2_2"/>
    </vehicle>
    <vehicle id="bicycle88" type="bicycle_bicycle" depart="870.00">
        <route edges="CheMe_1_1 TorPl_2_3 TorPl_2_4"/>
    </vehicle>
    <vehicle id="bicycle89" type="bicycle_bicycle" depart="893.00">
        <route edges="HunSt_2_1 TorPl_1_2 TorPl_1_3 TorPl_2_2 TorPl_2_3 HunSt_1_2"/>
    </vehicle>
    <vehicle id="bicycle90" type="bicycle_bicycle" depart="898.00">
        <route edges="GowSt_1_1 TorPl_1_4 MalSt_1_1"/>
    </vehicle>
    <vehicle id="bicycle91" type="bicycle_bicycle" depart="900.00">
        <route edges="GowSt_2_1 GowSt_2_2"/>
    </vehicle>
    <vehicle id="bicycle92" type="bicycle_bicycle" depart="906.00">
        <route edges="GowSt_1_1 GowSt_1_2"/>
    </vehicle>
    <vehicle id="bicycle93" type="bicycle_bicycle" depart="929.00">
        <route edges="HunSt_2_1 TorPl_1_2 TorPl_1_3 TorPl_1_4 BynPl_1_1 BynPl_1_2 BynPl_1_3 GorSq_2_3"/>
    </vehicle>
    <vehicle id="bicycle94" type="bicycle_bicycle" depart="961.00">
        <route edges="GorSq_2_1 GorSq_2_2 BynPl_2_1 BynPl_2_2 BynPl_2_3 TorPl_2_1 TorPl_2_2 TorPl_2_3 TorPl_2_4"/>
    </vehicle>
    <vehicle id="bicycle95" type="bicycle_bicycle" depart="968.00">
        <route edges="GowSt_2_1 TorPl_1_4 BynPl_1_1 BynPl_1_2 BynPl_1_3 GorSq_2_3"/>
    </vehicle>
    <vehicle id="bicycle96" type="bicycle_bicycle" depart="975.00">
        <route edges="GowSt_1_1 TorPl_1_4 MalSt_1_1"/>
    </vehicle>
    <vehicle id="bicycle97" type="bicycle_bicycle" depart="976.00">
        <route edges="GowSt_1_1 TorPl_1_4 BynPl_1_1 BynPl_1_2 BynPl_1_3 GorSq_1_2 GorSq_1_3"/>
    </vehicle>
    <vehicle id="bicycle98" type="bicycle_bicycle" depart="976.00">
        <route edges="RidGa_2_1 TorPl_1_3 TorPl_1_4 MalSt_1_1"/>
    </vehicle>
    <vehicle id="bicycle99" type="bicycle_bicycle" depart="977.00">
        <route edges="GowSt_1_1 TorPl_2_2 TorPl_2_3 TorPl_2_4"/>
    </vehicle>
    <vehicle id="bicycle100" type="bicycle_bicycle" depart="1001.00">
        <route edges="HunSt_1_1 TorPl_1_2 TorPl_1_3 TorPl_1_4 BynPl_1_1 BynPl_1_2 BynPl_1_3 GorSq_1_2 GorSq_1_3"/>
    </vehicle>
    <vehicle id="bicycle101" type="bicycle_bicycle" depart="1009.00">
        <route edges="MalSt_2_1 TorPl_2_1 TorPl_2_2 TorPl_2_3 HunSt_1_2"/>
    </vehicle>
    <vehicle id="bicycle102" type="bicycle_bicycle" depart="1018.00">
        <route edges="HunSt_2_1 TorPl_1_2 TorPl_1_3 GowSt_1_2"/>
    </vehicle>
    <vehicle id="bicycle103" type="bicycle_bicycle" depart="1019.00">
        <route edges="HunSt_2_1 TorPl_1_2 TorPl_1_3 TorPl_1_4 MalSt_1_1"/>
    </vehicle>
    <vehicle id="bicycle104" type="bicycle_bicycle" depart="1034.00">
        <route edges="RidGa_2_1 TorPl_1_3 GowSt_1_2"/>
    </vehicle>
    <vehicle id="bicycle105" type="bicycle_bicycle" depart="1041.00">
        <route edges="CheMe_1_1 TorPl_1_3 TorPl_1_4 BynPl_1_1 BynPl_1_2 BynPl_1_3 GorSq_2_3"/>
    </vehicle>
    <vehicle id="bicycle106" type="bicycle_bicycle" depart="1043.00">
        <route edges="HunSt_2_1 TorPl_1_2 TorPl_1_3 GowSt_1_2"/>
    </vehicle>
    <vehicle id="bicycle107" type="bicycle_bicycle" depart="1061.00">
        <route edges="HunSt_1_1 TorPl_1_2 TorPl_1_3 TorPl_1_4 MalSt_1_1"/>
    </vehicle>
    <vehicle id="bicycle108" type="bicycle_bicycle" depart="1069.00">
        <route edges="MalSt_2_1 TorPl_2_1 TorPl_1_4 MalSt_1_1"/>
    </vehicle>
    <vehicle id="bicycle109" type="bicycle_bicycle" depart="1092.00">
        <route edges="RidGa_2_1 TorPl_1_3 TorPl_1_4 BynPl_1_1 BynPl_1_2 BynPl_1_3 GorSq_2_3"/>
    </vehicle>
    <vehicle id="bicycle110" type="bicycle_bicycle" depart="1093.00">
        <route edges="TorPl_1_1 TorPl_1_2 TorPl_1_3 GowSt_1_2"/>
    </vehicle>
    <vehicle id="bicycle111" type="bicycle_bicycle" depart="1097.00">
        <route edges="HunSt_1_1 TorPl_1_2 TorPl_1_3 GowSt_2_2"/>
    </vehicle>
    <vehicle id="bicycle112" type="bicycle_bicycle" depart="1129.00">
        <route edges="GorSq_1_1 BynPl_2_1 BynPl_2_2 BynPl_2_3 TorPl_2_1 GowSt_2_2"/>
    </vehicle>
    <vehicle id="bicycle113" type="bicycle_bicycle" depart="1131.00">
        <route edges="TorPl_1_1 HunSt_1_2"/>
    </vehicle>
    <vehicle id="bicycle114" type="bicycle_bicycle" depart="1135.00">
        <route edges="GorSq_2_1 GorSq_2_2 BynPl_2_1 BynPl_2_2 BynPl_2_3 TorPl_2_1 TorPl_2_2 TorPl_2_3 TorPl_2_4"/>
    </vehicle>
    <vehicle id="bicycle115" type="bicycle_bicycle" depart="1142.00">
        <route edges="RidGa_2_1 TorPl_1_3 TorPl_1_4 MalSt_1_1"/>
    </vehicle>
    <vehicle id="bicycle116" type="bicycle_bicycle" depart="1154.00">
        <route edges="RidGa_2_1 TorPl_1_3 GowSt_1_2"/>
    </vehicle>
    <vehicle id="bicycle117" type="bicycle_bicycle" depart="1158.00">
        <route edges="GorSq_2_1 GorSq_2_2 BynPl_2_1 BynPl_2_2 BynPl_2_3 MalSt_1_1"/>
    </vehicle>
    <vehicle id="bicycle118" type="bicycle_bicycle" depart="1160.00">
        <route edges="GorSq_2_1 GorSq_2_2 GorSq_2_3"/>
    </vehicle>
    <vehicle id="bicycle119" type="bicycle_bicycle" depart="1177.00">
        <route edges="HunSt_2_1 TorPl_1_2 TorPl_1_3 TorPl_1_4 BynPl_1_1 BynPl_1_2 BynPl_1_3 GorSq_1_2 GorSq_1_3"/>
    </vehicle>
    <vehicle id="bicycle120" type="bicycle_bicycle" depart="1183.00">
        <route edges="GorSq_1_1 BynPl_2_1 BynPl_2_2 BynPl_2_3 TorPl_2_1 GowSt_1_2"/>
    </vehicle>
    <vehicle id="bicycle121" type="bicycle_bicycle" depart="1216.00">
        <route edges="GorSq_1_1 GorSq_1_2 GorSq_1_3"/>
    </vehicle>
    <vehicle id="bicycle122" type="bicycle_bicycle" depart="1218.00">
        <route edges="RidGa_2_1 TorPl_1_3 GowSt_2_2"/>
    </vehicle>
    <vehicle id="bicycle123" type="bicycle_bicycle" depart="1222.00">
        <route edges="HunSt_2_1 TorPl_1_2 TorPl_1_3 TorPl_1_4 BynPl_1_1 BynPl_1_2 BynPl_1_3 GorSq_1_2 GorSq_1_3"/>
    </vehicle>
    <vehicle id="bicycle124" type="bicycle_bicycle" depart="1245.00">
        <route edges="RidGa_2_1 TorPl_2_3 HunSt_1_2"/>
    </vehicle>
    <vehicle id="bicycle125" type="bicycle_bicycle" depart="1290.00">
        <route edges="TorPl_1_1 TorPl_1_2 TorPl_1_3 TorPl_2_2 TorPl_2_3 TorPl_2_4"/>
    </vehicle>
    <vehicle id="bicycle126" type="bicycle_bicycle" depart="1310.00">
        <route edges="GowSt_2_1 TorPl_1_4 BynPl_1_1 BynPl_1_2 BynPl_1_3 GorSq_1_2 GorSq_1_3"/>
    </vehicle>
    <vehicle id="bicycle127" type="bicycle_bicycle" depart="1323.00">
        <route edges="GowSt_1_1 TorPl_1_4 BynPl_1_1 BynPl_1_2 BynPl_1_3 GorSq_1_2 GorSq_1_3"/>
    </vehicle>
    <vehicle id="bicycle128" type="bicycle_bicycle" depart="1326.00">
        <route edges="MalSt_2_1 TorPl_2_1 GowSt_2_2"/>
    </vehicle>
    <vehicle id="bicycle129" type="bicycle_bicycle" depart="1327.00">
        <route edges="HunSt_1_1 TorPl_1_2 TorPl_1_3 TorPl_1_4 MalSt_1_1"/>
    </vehicle>
    <vehicle id="bicycle130" type="bicycle_bicycle" depart="1331.00">
        <route edges="GowSt_1_1 TorPl_2_2 TorPl_2_3 HunSt_1_2"/>
    </vehicle>
    <vehicle id="bicycle131" type="bicycle_bicycle" depart="1343.00">
        <route edges="GorSq_2_1 GorSq_2_2 BynPl_2_1 BynPl_2_2 BynPl_2_3 TorPl_2_1 GowSt_2_2"/>
    </vehicle>
    <vehicle id="bicycle132" type="bicycle_bicycle" depart="1346.00">
        <route edges="GorSq_1_1 BynPl_2_1 BynPl_2_2 BynPl_2_3 MalSt_1_1"/>
    </vehicle>
    <vehicle id="bicycle133" type="bicycle_bicycle" depart="1362.00">
        <route edges="HunSt_1_1 TorPl_2_4"/>
    </vehicle>
    <vehicle id="bicycle134" type="bicycle_bicycle" depart="1378.00">
        <route edges="TorPl_1_1 TorPl_1_2 TorPl_1_3 GowSt_2_2"/>
    </vehicle>
    <vehicle id="bicycle135" type="bicycle_bicycle" depart="1381.00">
        <route edges="GowSt_2_1 TorPl_1_4 BynPl_1_1 BynPl_1_2 BynPl_1_3 BynPl_2_1 BynPl_2_2 BynPl_2_3 TorPl_2_1 GowSt_1_2"/>
    </vehicle>
    <vehicle id="bicycle136" type="bicycle_bicycle" depart="1392.00">
        <route edges="HunSt_2_1 TorPl_1_2 TorPl_1_3 GowSt_2_2"/>
    </vehicle>
    <vehicle id="bicycle137" type="bicycle_bicycle" depart="1395.00">
        <route edges="GowSt_1_1 TorPl_2_2 TorPl_2_3 TorPl_2_4"/>
    </vehicle>
    <vehicle id="bicycle138" type="bicycle_bicycle" depart="1396.00">
        <route edges="HunSt_1_1 TorPl_1_2 TorPl_1_3 TorPl_1_4 MalSt_1_1"/>
    </vehicle>
    <vehicle id="bicycle139" type="bicycle_bicycle" depart="1425.00">
        <route edges="TorPl_1_1 TorPl_1_2 TorPl_1_3 GowSt_2_2"/>
    </vehicle>
    <vehicle id="bicycle140" type="bicycle_bicycle" depart="1427.00">
        <route edges="GowSt_2_1 GowSt_2_2"/>
    </vehicle>
    <vehicle id="bicycle141" type="bicycle_bicycle" depart="1439.00">
        <route edges="MalSt_2_1 TorPl_2_1 GowSt_1_2"/>
    </vehicle>
    <vehicle id="bicycle142" type="bicycle_bicycle" depart="1449.00">
        <route edges="RidGa_2_1 TorPl_1_3 GowSt_2_2"/>
    </vehicle>
    <vehicle id="bicycle143" type="bicycle_bicycle" depart="1458.00">
        <route edges="TorPl_1_1 TorPl_1_2 TorPl_1_3 TorPl_1_4 MalSt_1_1"/>
    </vehicle>
    <vehicle id="bicycle144" type="bicycle_bicycle" depart="1462.00">
        <route edges="GowSt_2_1 TorPl_2_2 TorPl_2_3 HunSt_1_2"/>
    </vehicle>
    <vehicle id="bicycle145" type="bicycle_bicycle" depart="1462.00">
        <route edges="GowSt_1_1 TorPl_1_4 BynPl_1_1 BynPl_1_2 BynPl_1_3 GorSq_2_3"/>
    </vehicle>
    <vehicle id="bicycle146" type="bicycle_bicycle" depart="1475.00">
        <route edges="GowSt_2_1 TorPl_2_2 TorPl_2_3 HunSt_1_2"/>
    </vehicle>
    <vehicle id="bicycle147" type="bicycle_bicycle" depart="1481.00">
        <route edges="GorSq_2_1 GorSq_2_2 GorSq_2_3"/>
    </vehicle>
    <vehicle id="bicycle148" type="bicycle_bicycle" depart="1485.00">
        <route edges="RidGa_2_1 TorPl_2_3 TorPl_2_4"/>
    </vehicle>
    <vehicle id="bicycle149" type="bicycle_bicycle" depart="1503.00">
        <route edges="HunSt_2_1 TorPl_1_2 TorPl_1_3 TorPl_1_4 BynPl_1_1 BynPl_1_2 BynPl_1_3 GorSq_2_3"/>
    </vehicle>
    <vehicle id="bicycle150" type="bicycle_bicycle" depart="1535.00">
        <route edges="TorPl_1_1 TorPl_1_2 TorPl_1_3 GowSt_1_2"/>
    </vehicle>
    <vehicle id="bicycle151" type="bicycle_bicycle" depart="1545.00">
        <route edges="HunSt_2_1 TorPl_1_2 TorPl_1_3 TorPl_1_4 BynPl_1_1 BynPl_1_2 BynPl_1_3 GorSq_2_3"/>
    </vehicle>
    <vehicle id="bicycle152" type="bicycle_bicycle" depart="1570.00">
        <route edges="GowSt_1_1 TorPl_1_4 BynPl_1_1 BynPl_1_2 BynPl_1_3 GorSq_1_2 GorSq_1_3"/>
    </vehicle>
    <vehicle id="bicycle153" type="bicycle_bicycle" depart="1570.00">
        <route edges="GowSt_1_1 GowSt_1_2"/>
    </vehicle>
    <vehicle id="bicycle154" type="bicycle_bicycle" depart="1571.00">
        <route edges="GowSt_1_1 TorPl_2_2 TorPl_2_3 HunSt_1_2"/>
    </vehicle>
    <vehicle id="bicycle155" type="bicycle_bicycle" depart="1587.00">
        <route edges="GowSt_1_1 TorPl_1_4 BynPl_1_1 BynPl_1_2 BynPl_1_3 GorSq_2_3"/>
    </vehicle>
    <vehicle id="bicycle156" type="bicycle_bicycle" depart="1598.00">
        <route edges="HunSt_2_1 TorPl_1_2 TorPl_1_3 TorPl_2_2 TorPl_2_3 HunSt_1_2"/>
    </vehicle>
    <vehicle id="bicycle157" type="bicycle_bicycle" depart="1616.00">
        <route edges="RidGa_2_1 TorPl_1_3 TorPl_1_4 BynPl_1_1 BynPl_1_2 BynPl_1_3 GorSq_2_3"/>
    </vehicle>
    <vehicle id="bicycle158" type="bicycle_bicycle" depart="1619.00">
        <route edges="GorSq_2_1 GorSq_2_2 BynPl_2_1 BynPl_2_2 BynPl_2_3 MalSt_1_1"/>
    </vehicle>
    <vehicle id="bicycle159" type="bicycle_bicycle" depart="1619.00">
        <route edges="HunSt_2_1 TorPl_1_2 TorPl_1_3 TorPl_1_4 BynPl_1_1 BynPl_1_2 BynPl_1_3 GorSq_1_2 GorSq_1_3"/>
    </vehicle>
    <vehicle id="bicycle160" type="bicycle_bicycle" depart="1625.00">
        <route edges="GorSq_2_1 GorSq_2_2 BynPl_2_1 BynPl_2_2 BynPl_2_3 MalSt_1_1"/>
    </vehicle>
    <vehicle id="bicycle161" type="bicycle_bicycle" depart="1631.00">
        <route edges="HunSt_1_1 TorPl_1_2 TorPl_1_3 GowSt_1_2"/>
    </vehicle>
    <vehicle id="bicycle162" type="bicycle_bicycle" depart="1636.00">
        <route edges="CheMe_1_1 TorPl_1_3 GowSt_2_2"/>
    </vehicle>
    <vehicle id="bicycle163" type="bicycle_bicycle" depart="1647.00">
        <route edges="GorSq_1_1 BynPl_2_1 BynPl_2_2 BynPl_2_3 TorPl_2_1 TorPl_2_2 TorPl_2_3 HunSt_1_2"/>
    </vehicle>
    <vehicle id="bicycle164" type="bicycle_bicycle" depart="1678.00">
        <route edges="CheMe_1_1 TorPl_1_3 TorPl_1_4 MalSt_1_1"/>
    </vehicle>
    <vehicle id="bicycle165" type="bicycle_bicycle" depart="1687.00">
        <route edges="MalSt_2_1 BynPl_1_1 BynPl_1_2 BynPl_1_3 GorSq_2_3"/>
    </vehicle>
    <vehicle id="bicycle166" type="bicycle_bicycle" depart="1688.00">
        <route edges="CheMe_1_1 TorPl_2_3 TorPl_2_4"/>
    </vehicle>
    <vehicle id="bicycle167" type="bicycle_bicycle" depart="1717.00">
        <route edges="GowSt_2_1 TorPl_1_4 MalSt_1_1"/>
    </vehicle>
    <vehicle id="bicycle168" type="bicycle_bicycle" depart="1725.00">
        <route edges="GorSq_2_1 GorSq_2_2 BynPl_2_1 BynPl_2_2 BynPl_2_3 TorPl_2_1 TorPl_2_2 TorPl_2_3 TorPl_2_4"/>
    </vehicle>
    <vehicle id="bicycle169" type="bicycle_bicycle" depart="1727.00">
        <route edges="HunSt_2_1 TorPl_1_2 TorPl_1_3 GowSt_2_2"/>
    </vehicle>
    <vehicle id="bicycle170" type="bicycle_bicycle" depart="1728.00">
        <route edges="GorSq_1_1 GorSq_1_2 GorSq_1_3"/>
    </vehicle>
    <vehicle id="bicycle171" type="bicycle_bicycle" depart="1729.00">
        <route edges="RidGa_2_1 TorPl_2_3 TorPl_2_4"/>
    </vehicle>
    <vehicle id="bicycle172" type="bicycle_bicycle" depart="1732.00">
        <route edges="MalSt_2_1 TorPl_2_1 GowSt_2_2"/>
    </vehicle>
    <vehicle id="bicycle173" type="bicycle_bicycle" depart="1734.00">