<?xml version="1.0" encoding="UTF-8"?>

<!-- generated on 2025-11-16 12:38:50.095570 by randomTrips.py v1_24_0+0000-b72eb3fabc8
<configuration>
    <net-file value="../networks/demo/main.net.xml"/>
    <output-trip-file value="../routes/demo/bicycle.trips.xml"/>
    <route-file value="../routes/demo/bicycle.rou.xml"/>
    <prefix value="bicycle"/>
    <vehicle-class value="bicycle"/>
    <fringe-factor value="max"/>
    <period value="10.0"/>
    <binomial value="100"/>
</configuration>
-->

<routes xmlns:xsi="http://www.w3.org/2001/XMLSchema-instance" xsi:noNamespaceSchemaLocation="http://sumo.dlr.de/xsd/routes_file.xsd">
    <vType id="bicycle_bicycle" vClass="bicycle"/>
    <trip id="bicycle0" depart="1.00" from="GowSt_1_1" to="GorSq_1_3" type="bicycle_bicycle"/>
    <trip id="bicycle1" depart="3.00" from="GorSq_2_1" to="GowSt_2_2" type="bicycle_bicycle"/>
    <trip id="bicycle2" depart="25.00" from="TorPl_1_1" to="GorSq_2_3" type="bicycle_bicycle"/>
    <trip id="bicycle3" depart="29.00" from="TorPl_1_1" to="GorSq_2_3" type="bicycle_bicycle"/>
    <trip id="bicycle4" depart="35.00" from="CheMe_1_1" to="HunSt_1_2" type="bicycle_bicycle"/>
    <trip id="bicycle5" depart="40.00" from="GorSq_1_1" to="TorPl_2_4" type="bicycle_bicycle"/>
    <trip id="bicycle6" depart="43.00" from="RidGa_2_1" to="MalSt_1_1" type="bicycle_bicycle"/>
    <trip id="bicycle7" depart="44.00" from="HunSt_2_1" to="GowSt_1_2" type="bicycle_bicycle"/>
    <trip id="bicycle8" depart="52.00" from="GorSq_1_1" to="GorSq_2_3" type="bicycle_bicycle"/>
    <trip id="bicycle9" depart="71.00" from="TorPl_1_1" to="GowSt_2_2" type="bicycle_bicycle"/>
    <trip id="bicycle10" depart="82.00" from="GowSt_1_1" to="TorPl_2_4" type="bicycle_bicycle"/>
    <trip id="bicycle11" depart="96.00" from="GorSq_2_1" to="GowSt_1_2" type="bicycle_bicycle"/>
    <trip id="bicycle12" depart="97.00" from="HunSt_2_1" to="GorSq_1_3" type="bicycle_bicycle"/>
    <trip id="bicycle13" depart="109.00" from="GorSq_1_1" to="TorPl_2_4" type="bicycle_bicycle"/>
    <trip id="bicycle14" depart="114.00" from="MalSt_2_1" to="HunSt_1_2" type="bicycle_bicycle"/>
    <trip id="bicycle15" depart="118.00" from="GorSq_2_1" to="GowSt_2_2" type="bicycle_bicycle"/>
    <trip id="bicycle16" depart="130.00" from="CheMe_1_1" to="GorSq_1_3" type="bicycle_bicycle"/>
    <trip id="bicycle17" depart="130.00" from="GowSt_2_1" to="MalSt_1_1" type="bicycle_bicycle"/>
    <trip id="bicycle18" depart="131.00" from="MalSt_2_1" to="GowSt_2_2" type="bicycle_bicycle"/>
    <trip id="bicycle19" depart="136.00" from="GowSt_2_1" to="MalSt_1_1" type="bicycle_bicycle"/>
    <trip id="bicycle20" depart="137.00" from="CheMe_1_1" to="TorPl_2_4" type="bicycle_bicycle"/>
    <trip id="bicycle21" depart="144.00" from="HunSt_2_1" to="TorPl_2_4" type="bicycle_bicycle"/>
    <trip id="bicycle22" depart="150.00" from="HunSt_2_1" to="GowSt_2_2" type="bicycle_bicycle"/>
    <trip id="bicycle23" depart="152.00" from="HunSt_2_1" to="HunSt_1_2" type="bicycle_bicycle"/>
    <trip id="bicycle24" depart="169.00" from="CheMe_1_1" to="GorSq_1_3" type="bicycle_bicycle"/>
    <trip id="bicycle25" depart="176.00" from="GorSq_1_1" to="GorSq_2_3" type="bicycle_bicycle"/>
    <trip id="bicycle26" depart="182.00" from="MalSt_2_1" to="GorSq_2_3" type="bicycle_bicycle"/>
    <trip id="bicycle27" depart="185.00" from="RidGa_2_1" to="HunSt_1_2" type="bicycle_bicycle"/>
    <trip id="bicycle28" depart="207.00" from="TorPl_1_1" to="GowSt_1_2" type="bicycle_bicycle"/>
    <trip id="bicycle29" depart="210.00" from="GorSq_2_1" to="GowSt_2_2" type="bicycle_bicycle"/>
    <trip id="bicycle30" depart="222.00" from="GowSt_2_1" to="GorSq_2_3" type="bicycle_bicycle"/>
    <trip id="bicycle31" depart="232.00" from="GorSq_1_1" to="GowSt_1_2" type="bicycle_bicycle"/>
    <trip id="bicycle32" depart="237.00" from="GorSq_2_1" to="HunSt_1_2" type="bicycle_bicycle"/>
    <trip id="bicycle33" depart="241.00" from="HunSt_2_1" to="GowSt_1_2" type="bicycle_bicycle"/>
    <trip id="bicycle34" depart="266.00" from="GowSt_2_1" to="GorSq_1_3" type="bicycle_bicycle"/>
    <trip id="bicycle35" depart="281.00" from="HunSt_2_1" to="GorSq_1_3" type="bicycle_bicycle"/>
    <trip id="bicycle36" depart="294.00" from="HunSt_1_1" to="GorSq_2_3" type="bicycle_bicycle"/>
    <trip id="bicycle37" depart="296.00" from="GorSq_2_1" to="MalSt_1_1" type="bicycle_bicycle"/>
    <trip id="bicycle38" depart="296.00" from="RidGa_2_1" to="GorSq_2_3" type="bicycle_bicycle"/>
    <trip id="bicycle39" depart="326.00" from="CheMe_1_1" to="GorSq_2_3" type="bicycle_bicycle"/>
    <trip id="bicycle40" depart="328.00" from="RidGa_2_1" to="TorPl_2_4" type="bicycle_bicycle"/>
    <trip id="bicycle41" depart="348.00" from="GorSq_1_1" to="TorPl_2_4" type="bicycle_bicycle"/>
    <trip id="bicycle42" depart="348.00" from="HunSt_2_1" to="HunSt_1_2" type="bicycle_bicycle"/>
    <trip id="bicycle43" depart="376.00" from="GowSt_2_1" to="HunSt_1_2" type="bicycle_bicycle"/>
    <trip id="bicycle44" depart="399.00" from="GowSt_2_1" to="GowSt_2_2" type="bicycle_bicycle"/>
    <trip id="bicycle45" depart="411.00" from="GorSq_2_1" to="GorSq_1_3" type="bicycle_bicycle"/>
    <trip id="bicycle46" depart="414.00" from="MalSt_2_1" to="GowSt_1_2" type="bicycle_bicycle"/>
    <trip id="bicycle47" depart="418.00" from="CheMe_1_1" to="GorSq_1_3" type="bicycle_bicycle"/>
    <trip id="bicycle48" depart="423.00" from="GowSt_1_1" to="GorSq_2_3" type="bicycle_bicycle"/>
    <trip id="bicycle49" depart="428.00" from="HunSt_2_1" to="GorSq_1_3" type="bicycle_bicycle"/>
    <trip id="bicycle50" depart="429.00" from="GowSt_2_1" to="HunSt_1_2" type="bicycle_bicycle"/>
    <trip id="bicycle51" depart="431.00" from="GorSq_1_1" to="MalSt_1_1" type="bicycle_bicycle"/>
    <trip id="bicycle52" depart="437.00" from="MalSt_2_1" to="GorSq_2_3" type="bicycle_bicycle"/>
    <trip id="bicycle53" depart="455.00" from="CheMe_1_1" to="HunSt_1_2" type="bicycle_bicycle"/>
    <trip id="bicycle54" depart="463.00" from="GowSt_1_1" to="GowSt_2_2" type="bicycle_bicycle"/>
    <trip id="bicycle55" depart="477.00" from="TorPl_1_1" to="GorSq_2_3" type="bicycle_bicycle"/>
    <trip id="bicycle56" depart="496.00" from="RidGa_2_1" to="GowSt_2_2" type="bicycle_bicycle"/>
    <trip id="bicycle57" depart="531.00" from="CheMe_1_1" to="TorPl_2_4" type="bicycle_bicycle"/>
    <trip id="bicycle58" depart="548.00" from="MalSt_2_1" to="TorPl_2_4" type="bicycle_bicycle"/>
    <trip id="bicycle59" depart="554.00" from="MalSt_2_1" to="GowSt_2_2" type="bicycle_bicycle"/>
    <trip id="bicycle60" depart="569.00" from="GowSt_2_1" to="HunSt_1_2" type="bicycle_bicycle"/>
    <trip id="bicycle61" depart="579.00" from="GorSq_1_1" to="GorSq_1_3" type="bicycle_bicycle"/>
    <trip id="bicycle62" depart="583.00" from="GowSt_1_1" to="GowSt_2_2" type="bicycle_bicycle"/>
    <trip id="bicycle63" depart="585.00" from="HunSt_1_1" to="GowSt_2_2" type="bicycle_bicycle"/>
    <trip id="bicycle64" depart="608.00" from="RidGa_2_1" to="TorPl_2_4" type="bicycle_bicycle"/>
    <trip id="bicycle65" depart="612.00" from="RidGa_2_1" to="GowSt_1_2" type="bicycle_bicycle"/>
    <trip id="bicycle66" depart="614.00" from="GorSq_1_1" to="MalSt_1_1" type="bicycle_bicycle"/>
    <trip id="bicycle67" depart="654.00" from="HunSt_2_1" to="GowSt_2_2" type="bicycle_bicycle"/>
    <trip id="bicycle68" depart="659.00" from="HunSt_1_1" to="GowSt_2_2" type="bicycle_bicycle"/>
    <trip id="bicycle69" depart="664.00" from="GowSt_1_1" to="GowSt_2_2" type="bicycle_bicycle"/>
    <trip id="bicycle70" depart="666.00" from="RidGa_2_1" to="GorSq_1_3" type="bicycle_bicycle"/>
    <trip id="bicycle71" depart="678.00" from="TorPl_1_1" to="GowSt_1_2" type="bicycle_bicycle"/>
    <trip id="bicycle72" depart="699.00" from="GowSt_1_1" to="MalSt_1_1" type="bicycle_bicycle"/>
    <trip id="bicycle73" depart="701.00" from="HunSt_2_1" to="MalSt_1_1" type="bicycle_bicycle"/>
    <trip id="bicycle74" depart="709.00" from="CheMe_1_1" to="GorSq_1_3" type="bicycle_bicycle"/>
    <trip id="bicycle75" depart="728.00" from="GowSt_2_1" to="HunSt_1_2" type="bicycle_bicycle"/>
    <trip id="bicycle76" depart="745.00" from="HunSt_2_1" to="GowSt_1_2" type="bicycle_bicycle"/>
    <trip id="bicycle77" depart="778.00" from="GorSq_1_1" to="HunSt_1_2" type="bicycle_bicycle"/>
    <trip id="bicycle78" depart="779.00" from="RidGa_2_1" to="TorPl_2_4" type="bicycle_bicycle"/>
    <trip id="bicycle79" depart="788.00" from="GorSq_2_1" to="GorSq_2_3" type="bicycle_bicycle"/>
    <trip id="bicycle80" depart="791.00" from="GorSq_2_1" to="GowSt_2_2" type="bicycle_bicycle"/>
    <trip id="bicycle81" depart="793.00" from="MalSt_2_1" to="TorPl_2_4" type="bicycle_bicycle"/>
    <trip id="bicycle82" depart="794.00" from="HunSt_1_1" to="GorSq_2_3" type="bicycle_bicycle"/>
    <trip id="bicycle83" depart="797.00" from="HunSt_2_1" to="GowSt_2_2" type="bicycle_bicycle"/>
    <trip id="bicycle84" depart="797.00" from="MalSt_2_1" to="TorPl_2_4" type="bicycle_bicycle"/>
    <trip id="bicycle85" depart="838.00" from="GowSt_2_1" to="GorSq_1_3" type="bicycle_bicycle"/>
    <trip id="bicycle86" depart="850.00" from="HunSt_2_1" to="TorPl_2_4" type="bicycle_bicycle"/>
    <trip id="bicycle87" depart="850.00" from="GorSq_1_1" to="GowSt_2_2" type="bicycle_bicycle"/>
    <trip id="bicycle88" depart="870.00" from="CheMe_1_1" to="TorPl_2_4" type="bicycle_bicycle"/>
    <trip id="bicycle89" depart="893.00" from="HunSt_2_1" to="HunSt_1_2" type="bicycle_bicycle"/>
    <trip id="bicycle90" depart="898.00" from="GowSt_1_1" to="MalSt_1_1" type="bicycle_bicycle"/>
    <trip id="bicycle91" depart="900.00" from="GowSt_2_1" to="GowSt_2_2" type="bicycle_bicycle"/>
    <trip id="bicycle92" depart="906.00" from="GowSt_1_1" to="GowSt_1_2" type="bicycle_bicycle"/>
    <trip id="bicycle93" depart="929.00" from="HunSt_2_1" to="GorSq_2_3" type="bicycle_bicycle"/>
    <trip id="bicycle94" depart="961.00" from="GorSq_2_1" to="TorPl_2_4" type="bicycle_bicycle"/>
    <trip id="bicycle95" depart="968.00" from="GowSt_2_1" to="GorSq_2_3" type="bicycle_bicycle"/>
    <trip id="bicycle96" depart="975.00" from="GowSt_1_1" to="MalSt_1_1" type="bicycle_bicycle"/>
    <trip id="bicycle97" depart="976.00" from="GowSt_1_1" to="GorSq_1_3" type="bicycle_bicycle"/>
    <trip id="bicycle98" depart="976.00" from="RidGa_2_1" to="MalSt_1_1" type="bicycle_bicycle"/>
    <trip id="bicycle99" depart="977.00" from="GowSt_1_1" to="TorPl_2_4" type="bicycle_bicycle"/>
    <trip id="bicycle100" depart="1001.00" from="HunSt_1_1" to="GorSq_1_3" type="bicycle_bicycle"/>
    <trip id="bicycle101" depart="1009.00" from="MalSt_2_1" to="HunSt_1_2" type="bicycle_bicycle"/>
    <trip id="bicycle102" depart="1018.00" from="HunSt_2_1" to="GowSt_1_2" type="bicycle_bicycle"/>
    <trip id="bicycle103" depart="1019.00" from="HunSt_2_1" to="MalSt_1_1" type="bicycle_bicycle"/>
    <trip id="bicycle104" depart="1034.00" from="RidGa_2_1" to="GowSt_1_2" type="bicycle_bicycle"/>
    <trip id="bicycle105" depart="1041.00" from="CheMe_1_1" to="GorSq_2_3" type="bicycle_bicycle"/>
    <trip id="bicycle106" depart="1043.00" from="HunSt_2_1" to="GowSt_1_2" type="bicycle_bicycle"/>
    <trip id="bicycle107" depart="1061.00" from="HunSt_1_1" to="MalSt_1_1" type="bicycle_bicycle"/>
    <trip id="bicycle108" depart="1069.00" from="MalSt_2_1" to="MalSt_1_1" type="bicycle_bicycle"/>
    <trip id="bicycle109" depart="1092.00" from="RidGa_2_1" to="GorSq_2_3" type="bicycle_bicycle"/>
    <trip id="bicycle110" depart="1093.00" from="TorPl_1_1" to="GowSt_1_2" type="bicycle_bicycle"/>
    <trip id="bicycle111" depart="1097.00" from="HunSt_1_1" to="GowSt_2_2" type="bicycle_bicycle"/>
    <trip id="bicycle112" depart="1129.00" from="GorSq_1_1" to="GowSt_2_2" type="bicycle_bicycle"/>
    <trip id="bicycle113" depart="1131.00" from="TorPl_1_1" to="HunSt_1_2" type="bicycle_bicycle"/>
    <trip id="bicycle114" depart="1135.00" from="GorSq_2_1" to="TorPl_2_4" type="bicycle_bicycle"/>
    <trip id="bicycle115" depart="1142.00" from="RidGa_2_1" to="MalSt_1_1" type="bicycle_bicycle"/>
    <trip id="bicycle116" depart="1154.00" from="RidGa_2_1" to="GowSt_1_2" type="bicycle_bicycle"/>
    <trip id="bicycle117" depart="1158.00" from="GorSq_2_1" to="MalSt_1_1" type="bicycle_bicycle"/>
    <trip id="bicycle118" depart="1160.00" from="GorSq_2_1" to="GorSq_2_3" type="bicycle_bicycle"/>
    <trip id="bicycle119" depart="1177.00" from="HunSt_2_1" to="GorSq_1_3" type="bicycle_bicycle"/>
    <trip id="bicycle120" depart="1183.00" from="GorSq_1_1" to="GowSt_1_2" type="bicycle_bicycle"/>
    <trip id="bicycle121" depart="1216.00" from="GorSq_1_1" to="GorSq_1_3" type="bicycle_bicycle"/>
    <trip id="bicycle122" depart="1218.00" from="RidGa_2_1" to="GowSt_2_2" type="bicycle_bicycle"/>
    <trip id="bicycle123" depart="1222.00" from="HunSt_2_1" to="GorSq_1_3" type="bicycle_bicycle"/>
    <trip id="bicycle124" depart="1245.00" from="RidGa_2_1" to="HunSt_1_2" type="bicycle_bicycle"/>
    <trip id="bicycle125" depart="1290.00" from="TorPl_1_1" to="TorPl_2_4" type="bicycle_bicycle"/>
    <trip id="bicycle126" depart="1310.00" from="GowSt_2_1" to="GorSq_1_3" type="bicycle_bicycle"/>
    <trip id="bicycle127" depart="1323.00" from="GowSt_1_1" to="GorSq_1_3" type="bicycle_bicycle"/>
    <trip id="bicycle128" depart="1326.00" from="MalSt_2_1" to="GowSt_2_2" type="bicycle_bicycle"/>
    <trip id="bicycle129" depart="1327.00" from="HunSt_1_1" to="MalSt_1_1" type="bicycle_bicycle"/>
    <trip id="bicycle130" depart="1331.00" from="GowSt_1_1" to="HunSt_1_2" type="bicycle_bicycle"/>
    <trip id="bicycle131" depart="1343.00" from="GorSq_2_1" to="GowSt_2_2" type="bicycle_bicycle"/>
    <trip id="bicycle132" depart="1346.00" from="GorSq_1_1" to="MalSt_1_1" type="bicycle_bicycle"/>
    <trip id="bicycle133" depart="1362.00" from="HunSt_1_1" to="TorPl_2_4" type="bicycle_bicycle"/>
    <trip id="bicycle134" depart="1378.00" from="TorPl_1_1" to="GowSt_2_2" type="bicycle_bicycle"/>
    <trip id="bicycle135" depart="1381.00" from="GowSt_2_1" to="GowSt_1_2" type="bicycle_bicycle"/>
    <trip id="bicycle136" depart="1392.00" from="HunSt_2_1" to="GowSt_2_2" type="bicycle_bicycle"/>
    <trip id="bicycle137" depart="1395.00" from="GowSt_1_1" to="TorPl_2_4" type="bicycle_bicycle"/>
    <trip id="bicycle138" depart="1396.00" from="HunSt_1_1" to="MalSt_1_1" type="bicycle_bicycle"/>
    <trip id="bicycle139" depart="1425.00" from="TorPl_1_1" to="GowSt_2_2" type="bicycle_bicycle"/>
    <trip id="bicycle140" depart="1427.00" from="GowSt_2_1" to="GowSt_2_2" type="bicycle_bicycle"/>
    <trip id="bicycle141" depart="1439.00" from="MalSt_2_1" to="GowSt_1_2" type="bicycle_bicycle"/>
    <trip id="bicycle142" depart="1449.00" from="RidGa_2_1" to="GowSt_2_2" type="bicycle_bicycle"/>
    <trip id="bicycle143" depart="1458.00" from="TorPl_1_1" to="MalSt_1_1" type="bicycle_bicycle"/>
    <trip id="bicycle144" depart="1462.00" from="GowSt_2_1" to="HunSt_1_2" type="bicycle_bicycle"/>
    <trip id="bicycle145" depart="1462.00" from="GowSt_1_1" to="GorSq_2_3" type="bicycle_bicycle"/>
    <trip id="bicycle146" depart="1475.00" from="GowSt_2_1" to="HunSt_1_2" type="bicycle_bicycle"/>
    <trip id="bicycle147" depart="1481.00" from="GorSq_2_1" to="GorSq_2_3" type="bicycle_bicycle"/>
    <trip id="bicycle148" depart="1485.00" from="RidGa_2_1" to="TorPl_2_4" type="bicycle_bicycle"/>
    <trip id="bicycle149" depart="1503.00" from="HunSt_2_1" to="GorSq_2_3" type="bicycle_bicycle"/>
    <trip id="bicycle150" depart="1535.00" from="TorPl_1_1" to="GowSt_1_2" type="bicycle_bicycle"/>
    <trip id="bicycle151" depart="1545.00" from="HunSt_2_1" to="GorSq_2_3" type="bicycle_bicycle"/>
    <trip id="bicycle152" depart="1570.00" from="GowSt_1_1" to="GorSq_1_3" type="bicycle_bicycle"/>
    <trip id="bicycle153" depart="1570.00" from="GowSt_1_1" to="GowSt_1_2" type="bicycle_bicycle"/>
    <trip id="bicycle154" depart="1571.00" from="GowSt_1_1" to="HunSt_1_2" type="bicycle_bicycle"/>
    <trip id="bicycle155" depart="1587.00" from="GowSt_1_1" to="GorSq_2_3" type="bicycle_bicycle"/>
    <trip id="bicycle156" depart="1598.00" from="HunSt_2_1" to="HunSt_1_2" type="bicycle_bicycle"/>
    <trip id="bicycle157" depart="1616.00" from="RidGa_2_1" to="GorSq_2_3" type="bicycle_bicycle"/>
    <trip id="bicycle158" depart="1619.00" from="GorSq_2_1" to="MalSt_1_1" type="bicycle_bicycle"/>
    <trip id="bicycle159" depart="1619.00" from="HunSt_2_1" to="GorSq_1_3" type="bicycle_bicycle"/>
    <trip id="bicycle160" depart="1625.00" from="GorSq_2_1" to="MalSt_1_1" type="bicycle_bicycle"/>
    <trip id="bicycle161" depart="1631.00" from="HunSt_1_1" to="GowSt_1_2" type="bicycle_bicycle"/>
    <trip id="bicycle162" depart="1636.00" from="CheMe_1_1" to="GowSt_2_2" type="bicycle_bicycle"/>
    <trip id="bicycle163" depart="1647.00" from="GorSq_1_1" to="HunSt_1_2" type="bicycle_bicycle"/>
    <trip id="bicycle164" depart="1678.00" from="CheMe_1_1" to="MalSt_1_1" type="bicycle_bicycle"/>
    <trip id="bicycle165" depart="1687.00" from="MalSt_2_1" to="GorSq_2_3" type="bicycle_bicycle"/>
    <trip id="bicycle166" depart="1688.00" from="CheMe_1_1" to="TorPl_2_4" type="bicycle_bicycle"/>
    <trip id="bicycle167" depart="1717.00" from="GowSt_2_1" to="MalSt_1_1" type="bicycle_bicycle"/>
    <trip id="bicycle168" depart="1725.00" from="GorSq_2_1" to="TorPl_2_4" type="bicycle_bicycle"/>
    <trip id="bicycle169" depart="1727.00" from="HunSt_2_1" to="GowSt_2_2" type="bicycle_bicycle"/>
    <trip id="bicycle170" depart="1728.00" from="GorSq_1_1" to="GorSq_1_3" type="bicycle_bicycle"/>
    <trip id="bicycle171" depart="1729.00" from="RidGa_2_1" to="TorPl_2_4" type="bicycle_bicycle"/>
    <trip id="bicycle172" depart="1732.00" from="MalSt_2_1" to="GowSt_2_2" type="bicycle_bicycle"/>
    <trip id="bicycle173" depart="1734.00" from="CheMe_1_1" to="GorSq_2_3" type="bicycle_bicycle"/>
    <trip id="bicycle174" depart="1746.00" from="MalSt_2_1" to="MalSt_1_1" type="bicycle_bicycle"/>
    <trip id="bicycle175" depart="1748.00" from="MalSt_2_1" to="GorSq_1_3" type="bicycle_bicycle"/>
    <trip id="bicycle176" depart="1756.00" from="MalSt_2_1" to="HunSt_1_2" type="bicycle_bicycle"/>
    <trip id="bicycle177" depart="1779.00" from="GorSq_2_1" to="GowSt_1_2" type="bicycle_bicycle"/>
    <trip id="bicycle178" depart="1781.00" from="GorSq_2_1" to="GorSq_2_3" type="bicycle_bicycle"/>
    <trip id="bicycle179" depart="1798.00" from="TorPl_1_1" to="GorSq_1_3" type="bicycle_bicycle"/>
    <trip id="bicycle180" depart="1799.00" from="GowSt_2_1" to="MalSt_1_1" type="bicycle_bicycle"/>
    <trip id="bicycle181" depart="1845.00" from="RidGa_2_1" to="GowSt_1_2" type="bicycle_bicycle"/>
    <trip id="bicycle182" depart="1860.00" from="HunSt_2_1" to="GowSt_2_2" type="bicycle_bicycle"/>
    <trip id="bicycle183" depart="1878.00" from="GowSt_1_1" to="GorSq_1_3" type="bicycle_bicycle"/>
    <trip id="bicycle184" depart="1882.00" from="GowSt_1_1" to="GowSt_1_2" type="bicycle_bicycle"/>
    <trip id="bicycle185" depart="1913.00" from="GowSt_2_1" to="HunSt_1_2" type="bicycle_bicycle"/>
    <trip id="bicycle186" depart="1920.00" from="HunSt_2_1" to="GowSt_2_2" type="bicycle_bicycle"/>
    <trip id="bicycle187" depart="1931.00" from="GowSt_2_1" to="TorPl_2_4" type="bicycle_bicycle"/>
    <trip id="bicycle188" depart="1941.00" from="TorPl_1_1" to="MalSt_1_1" type="bicycle_bicycle"/>
    <trip id="bicycle189" depart="1950.00" from="HunSt_1_1" to="GorSq_1_3" type="bicycle_bicycle"/>
    <trip id="bicycle190" depart="1953.00" from="TorPl_1_1" to="HunSt_1_2" type="bicycle_bicycle"/>
    <trip id="bicycle191" depart="1960.00" from="HunSt_1_1" to="GorSq_1_3" type="bicycle_bicycle"/>
    <trip id="bicycle192" depart="1986.00" from="TorPl_1_1" to="TorPl_2_4" type="bicycle_bicycle"/>
    <trip id="bicycle193" depart="2013.00" from="GowSt_2_1" to="GorSq_1_3" type="bicycle_bicycle"/>
    <trip id="bicycle194" depart="2017.00" from="GowSt_2_1" to="GowSt_1_2" type="bicycle_bicycle"/>
    <trip id="bicycle195" depart="2024.00" from="TorPl_1_1" to="TorPl_2_4" type="bicycle_bicycle"/>
    <trip id="bicycle196" depart="2113.00" from="MalSt_2_1" to="MalSt_1_1" type="bicycle_bicycle"/>
    <trip id="bicycle197" depart="2118.00" from="HunSt_1_1" to="GorSq_2_3" type="bicycle_bicycle"/>
    <trip id="bicycle198" depart="2119.00" from="GowSt_2_1" to="GorSq_2_3" type="bicycle_bicycle"/>
    <trip id="bicycle199" depart="2131.00" from="GowSt_2_1" to="MalSt_1_1" type="bicycle_bicycle"/>
    <trip id="bicycle200" depart="2132.00" from="GorSq_2_1" to="GowSt_1_2" type="bicycle_bicycle"/>
    <trip id="bicycle201" depart="2143.00" from="CheMe_1_1" to="GorSq_1_3" type="bicycle_bicycle"/>
    <trip id="bicycle202" depart="2149.00" from="MalSt_2_1" to="HunSt_1_2" type="bicycle_bicycle"/>
    <trip id="bicycle203" depart="2158.00" from="GorSq_2_1" to="GorSq_1_3" type="bicycle_bicycle"/>
    <trip id="bicycle204" depart="2178.00" from="MalSt_2_1" to="GorSq_1_3" type="bicycle_bicycle"/>
    <trip id="bicycle205" depart="2182.00" from="GowSt_2_1" to="MalSt_1_1" type="bicycle_bicycle"/>
    <trip id="bicycle206" depart="2185.00" from="TorPl_1_1" to="GowSt_2_2" type="bicycle_bicycle"/>
    <trip id="bicycle207" depart="2187.00" from="CheMe_1_1" to="GowSt_2_2" type="bicycle_bicycle"/>
    <trip id="bicycle208" depart="2189.00" from="GorSq_1_1" to="GowSt_1_2" type="bicycle_bicycle"/>
    <trip id="bicycle209" depart="2196.00" from="HunSt_2_1" to="TorPl_2_4" type="bicycle_bicycle"/>
    <trip id="bicycle210" depart="2210.00" from="GowSt_2_1" to="GowSt_1_2" type="bicycle_bicycle"/>
    <trip id="bicycle211" depart="2218.00" from="RidGa_2_1" to="GorSq_2_3" type="bicycle_bicycle"/>
    <trip id="bicycle212" depart="2230.00" from="GowSt_2_1" to="GowSt_2_2" type="bicycle_bicycle"/>
    <trip id="bicycle213" depart="2250.00" from="RidGa_2_1" to="MalSt_1_1" type="bicycle_bicycle"/>
    <trip id="bicycle214" depart="2263.00" from="GowSt_2_1" to="GowSt_2_2" type="bicycle_bicycle"/>
    <trip id="bicycle215" depart="2296.00" from="RidGa_2_1" to="TorPl_2_4" type="bicycle_bicycle"/>
    <trip id="bicycle216" depart="2305.00" from="GowSt_1_1" to="GorSq_1_3" type="bicycle_bicycle"/>
    <trip id="bicycle217" depart="2319.00" from="RidGa_2_1" to="GowSt_1_2" type="bicycle_bicycle"/>
    <trip id="bicycle218" depart="2322.00" from="HunSt_2_1" to="GowSt_1_2" type="bicycle_bicycle"/>
    <trip id="bicycle219" depart="2351.00" from="GowSt_1_1" to="MalSt_1_1" type="bicycle_bicycle"/>
    <trip id="bicycle220" depart="2351.00" from="HunSt_2_1" to="HunSt_1_2" type="bicycle_bicycle"/>
    <trip id="bicycle221" depart="2408.00" from="GorSq_1_1" to="MalSt_1_1" type="bicycle_bicycle"/>
    <trip id="bicycle222" depart="2425.00" from="GorSq_2_1" to="GorSq_2_3" type="bicycle_bicycle"/>
    <trip id="bicycle223" depart="2438.00" from="GorSq_1_1" to="GowSt_2_2" type="bicycle_bicycle"/>
    <trip id="bicycle224" depart="2440.00" from="RidGa_2_1" to="GowSt_1_2" type="bicycle_bicycle"/>
    <trip id="bicycle225" depart="2443.00" from="GorSq_1_1" to="TorPl_2_4" type="bicycle_bicycle"/>
    <trip id="bicycle226" depart="2448.00" from="GorSq_1_1" to="MalSt_1_1" type="bicycle_bicycle"/>
    <trip id="bicycle227" depart="2459.00" from="MalSt_2_1" to="HunSt_1_2" type="bicycle_bicycle"/>
    <trip id="bicycle228" depart="2465.00" from="CheMe_1_1" to="GorSq_1_3" type="bicycle_bicycle"/>
    <trip id="bicycle229" depart="2467.00" from="HunSt_2_1" to="HunSt_1_2" type="bicycle_bicycle"/>
    <trip id="bicycle230" depart="2468.00" from="GowSt_2_1" to="GowSt_2_2" type="bicycle_bicycle"/>
    <trip id="bicycle231" depart="2479.00" from="TorPl_1_1" to="TorPl_2_4" type="bicycle_bicycle"/>
    <trip id="bicycle232" depart="2483.00" from="GorSq_1_1" to="HunSt_1_2" type="bicycle_bicycle"/>
    <trip id="bicycle233" depart="2486.00" from="MalSt_2_1" to="TorPl_2_4" type="bicycle_bicycle"/>
    <trip id="bicycle234" depart="2486.00" from="HunSt_2_1" to="GorSq_1_3" type="bicycle_bicycle"/>
    <trip id="bicycle235" depart="2496.00" from="HunSt_2_1" to="MalSt_1_1" type="bicycle_bicycle"/>
    <trip id="bicycle236" depart="2496.00" from="GorSq_2_1" to="HunSt_1_2" type="bicycle_bicycle"/>
    <trip id="bicycle237" depart="2506.00" from="GowSt_1_1" to="GorSq_2_3" type="bicycle_bicycle"/>
    <trip id="bicycle238" depart="2526.00" from="GorSq_1_1" to="GowSt_1_2" type="bicycle_bicycle"/>
    <trip id="bicycle239" depart="2527.00" from="MalSt_2_1" to="GorSq_2_3" type="bicycle_bicycle"/>
    <trip id="bicycle240" depart="2552.00" from="GorSq_2_1" to="TorPl_2_4" type="bicycle_bicycle"/>
    <trip id="bicycle241" depart="2561.00" from="HunSt_2_1" to="TorPl_2_4" type="bicycle_bicycle"/>
    <trip id="bicycle242" depart="2564.00" from="RidGa_2_1" to="GorSq_2_3" type="bicycle_bicycle"/>
    <trip id="bicycle243" depart="2569.00" from="GorSq_1_1" to="MalSt_1_1" type="bicycle_bicycle"/>
    <trip id="bicycle244" depart="2581.00" from="MalSt_2_1" to="GorSq_1_3" type="bicycle_bicycle"/>
    <trip id="bicycle245" depart="2582.00" from="GowSt_2_1" to="HunSt_1_2" type="bicycle_bicycle"/>
    <trip id="bicycle246" depart="2602.00" from="CheMe_1_1" to="GorSq_2_3" type="bicycle_bicycle"/>
    <trip id="bicycle247" depart="2629.00" from="MalSt_2_1" to="GowSt_1_2" type="bicycle_bicycle"/>
    <trip id="bicycle248" depart="2630.00" from="GowSt_1_1" to="TorPl_2_4" type="bicycle_bicycle"/>
    <trip id="bicycle249" depart="2631.00" from="HunSt_1_1" to="GorSq_2_3" type="bicycle_bicycle"/>
    <trip id="bicycle250" depart="2633.00" from="GorSq_2_1" to="GorSq_2_3" type="bicycle_bicycle"/>
    <trip id="bicycle251" depart="2642.00" from="GowSt_1_1" to="GorSq_1_3" type="bicycle_bicycle"/>
    <trip id="bicycle252" depart="2665.00" from="CheMe_1_1" to="GorSq_2_3" type="bicycle_bicycle"/>
    <trip id="bicycle253" depart="2684.00" from="GowSt_2_1" to="GowSt_1_2" type="bicycle_bicycle"/>
    <trip id="bicycle254" depart="2688.00" from="GorSq_2_1" to="GorSq_2_3" type="bicycle_bicycle"/>
    <trip id="bicycle255" depart="2697.00" from="GorSq_1_1" to="MalSt_1_1" type="bicycle_bicycle"/>
    <trip id="bicycle256" depart="2702.00" from="HunSt_2_1" to="GowSt_2_2" type="bicycle_bicycle"/>
    <trip id="bicycle257" depart="2703.00" from="CheMe_1_1" to="GorSq_2_3" type="bicycle_bicycle"/>
    <trip id="bicycle258" depart="2715.00" from="GowSt_1_1" to="GorSq_2_3" type="bicycle_bicycle"/>
    <trip id="bicycle259" depart="2715.00" from="CheMe_1_1" to="TorPl_2_4" type="bicycle_bicycle"/>
    <trip id="bicycle260" depart="2722.00" from="GorSq_2_1" to="GowSt_1_2" type="bicycle_bicycle"/>
    <trip id="bicycle261" depart="2731.00" from="GorSq_1_1" to="TorPl_2_4" type="bicycle_bicycle"/>
    <trip id="bicycle262" depart="2740.00" from="GowSt_1_1" to="MalSt_1_1" type="bicycle_bicycle"/>
    <trip id="bicycle263" depart="2753.00" from="GowSt_2_1" to="GowSt_2_2" type="bicycle_bicycle"/>
    <trip id="bicycle264" depart="2758.00" from="HunSt_2_1" to="HunSt_1_2" type="bicycle_bicycle"/>
    <trip id="bicycle265" depart="2759.00" from="RidGa_2_1" to="GorSq_2_3" type="bicycle_bicycle"/>
    <trip id="bicycle266" depart="2762.00" from="GowSt_2_1" to="GowSt_1_2" type="bicycle_bicycle"/>
    <trip id="bicycle267" depart="2767.00" from="GowSt_2_1" to="GorSq_2_3" type="bicycle_bicycle"/>
    <trip id="bicycle268" depart="2768.00" from="HunSt_2_1" to="GowSt_2_2" type="bicycle_bicycle"/>
    <trip id="bicycle269" depart="2784.00" from="GorSq_2_1" to="GorSq_1_3" type="bicycle_bicycle"/>
    <trip id="bicycle270" depart="2793.00" from="GowSt_1_1" to="GowSt_2_2" type="bicycle_bicycle"/>
    <trip id="bicycle271" depart="2794.00" from="GorSq_1_1" to="MalSt_1_1" type="bicycle_bicycle"/>
    <trip id="bicycle272" depart="2800.00" from="CheMe_1_1" to="MalSt_1_1" type="bicycle_bicycle"/>
    <trip id="bicycle273" depart="2813.00" from="TorPl_1_1" to="MalSt_1_1" type="bicycle_bicycle"/>
    <trip id="bicycle274" depart="2829.00" from="MalSt_2_1" to="GowSt_2_2" type="bicycle_bicycle"/>
    <trip id="bicycle275" depart="2837.00" from="TorPl_1_1" to="TorPl_2_4" type="bicycle_bicycle"/>
    <trip id="bicycle276" depart="2855.00" from="TorPl_1_1" to="TorPl_2_4" type="bicycle_bicycle"/>
    <trip id="bicycle277" depart="2897.00" from="GorSq_1_1" to="GorSq_1_3" type="bicycle_bicycle"/>
    <trip id="bicycle278" depart="2901.00" from="MalSt_2_1" to="MalSt_1_1" type="bicycle_bicycle"/>
    <trip id="bicycle279" depart="2907.00" from="RidGa_2_1" to="GorSq_1_3" type="bicycle_bicycle"/>
    <trip id="bicycle280" depart="2910.00" from="HunSt_1_1" to="GorSq_2_3" type="bicycle_bicycle"/>
    <trip id="bicycle281" depart="2912.00" from="TorPl_1_1" to="GowSt_2_2" type="bicycle_bicycle"/>
    <trip id="bicycle282" depart="2917.00" from="GorSq_1_1" to="MalSt_1_1" type="bicycle_bicycle"/>
    <trip id="bicycle283" depart="2923.00" from="GowSt_2_1" to="MalSt_1_1" type="bicycle_bicycle"/>
    <trip id="bicycle284" depart="2932.00" from="GowSt_1_1" to="GorSq_2_3" type="bicycle_bicycle"/>
    <trip id="bicycle285" depart="2947.00" from="TorPl_1_1" to="GorSq_2_3" type="bicycle_bicycle"/>
    <trip id="bicycle286" depart="2951.00" from="GorSq_2_1" to="GorSq_2_3" type="bicycle_bicycle"/>
    <trip id="bicycle287" depart="2957.00" from="GorSq_2_1" to="GowSt_2_2" type="bicycle_bicycle"/>
    <trip id="bicycle288" depart="2967.00" from="CheMe_1_1" to="TorPl_2_4" type="bicycle_bicycle"/>
    <trip id="bicycle289" depart="2973.00" from="HunSt_2_1" to="GorSq_1_3" type="bicycle_bicycle"/>
    <trip id="bicycle290" depart="2978.00" from="MalSt_2_1" to="TorPl_2_4" type="bicycle_bicycle"/>
    <trip id="bicycle291" depart="2998.00" from="RidGa_2_1" to="MalSt_1_1" type="bicycle_bicycle"/>