<?xml version="1.0" encoding="UTF-8"?>

<!-- generated on 2025-11-24 15:04:52.264183 by Eclipse SUMO randomTrips.py UNKNOWN
<configuration>
    <net-file value="../networks/demo/main.net.xml"/>
    <output-trip-file value="../routes/demo/388/bicycle.trips.xml"/>
    <route-file value="../routes/demo/388/bicycle.rou.xml"/>
    <prefix value="bicycle"/>
    <vehicle-class value="bicycle"/>
    <fringe-factor value="max"/>
    <seed value="388"/>
    <period value="10.0"/>
    <binomial value="100"/>
</configuration>
-->

<!-- generated on 2025-11-24T15:04:52.257927+00:00 by Eclipse SUMO duarouter 1.25.0
<duarouterConfiguration xmlns:xsi="http://www.w3.org/2001/XMLSchema-instance" xsi:noNamespaceSchemaLocation="http://sumo.dlr.de/xsd/duarouterConfiguration.xsd">

    <input>
        <net-file value="../networks/demo/main.net.xml"/>
        <route-files value="../routes/demo/388/bicycle.trips.xml"/>
    </input>

    <output>
        <output-file value="../routes/demo/388/bicycle.rou.xml"/>
        <alternatives-output value="NUL"/>
    </output>

    <time>
        <begin value="0"/>
        <end value="3600.0"/>
    </time>

    <report>
        <no-warnings value="true"/>
        <ignore-errors value="true"/>
        <no-step-log value="true"/>
    </report>

</duarouterConfiguration>
-->

<routes xmlns:xsi="http://www.w3.org/2001/XMLSchema-instance" xsi:noNamespaceSchemaLocation="http://sumo.dlr.de/xsd/routes_file.xsd">
    <vType id="bicycle_bicycle" vClass="bicycle"/>
    <vehicle id="bicycle0" type="bicycle_bicycle" depart="0.00">
        <route edges="HunSt_1_1 TorPl_1_2 TorPl_1_3 TorPl_1_4 BynPl_1_1 BynPl_1_2 BynPl_1_3 GorSq_2_3"/>
    </vehicle>
    <vehicle id="bicycle1" type="bicycle_bicycle" depart="13.00">
        <route edges="CheMe_1_1 TorPl_2_3 TorPl_2_4"/>
    </vehicle>
    <vehicle id="bicycle2" type="bicycle_bicycle" depart="45.00">
        <route edges="GorSq_2_1 GorSq_2_2 BynPl_2_1 BynPl_2_2 BynPl_2_3 TorPl_2_1 TorPl_2_2 TorPl_2_3 HunSt_1_2"/>
    </vehicle>
    <vehicle id="bicycle3" type="bicycle_bicycle" depart="60.00">
        <route edges="HunSt_2_1 TorPl_2_4"/>
    </vehicle>
    <vehicle id="bicycle4" type="bicycle_bicycle" depart="63.00">
        <route edges="GorSq_1_1 BynPl_2_1 BynPl_2_2 BynPl_2_3 BynPl_1_1 BynPl_1_2 BynPl_1_3 GorSq_2_3"/>
    </vehicle>
    <vehicle id="bicycle5" type="bicycle_bicycle" depart="64.00">
        <route edges="MalSt_2_1 TorPl_2_1 GowSt_1_2"/>
    </vehicle>
    <vehicle id="bicycle6" type="bicycle_bicycle" depart="69.00">
        <route edges="GowSt_2_1 TorPl_2_2 TorPl_2_3 TorPl_2_4"/>
    </vehicle>
    <vehicle id="bicycle7" type="bicycle_bicycle" depart="82.00">
        <route edges="GorSq_1_1 BynPl_2_1 BynPl_2_2 BynPl_2_3 MalSt_1_1"/>
    </vehicle>
    <vehicle id="bicycle8" type="bicycle_bicycle" depart="113.00">
        <route edges="GorSq_2_1 GorSq_2_2 GorSq_2_3"/>
    </vehicle>
    <vehicle id="bicycle9" type="bicycle_bicycle" depart="122.00">
        <route edges="GowSt_1_1 GowSt_1_2"/>
    </vehicle>
    <vehicle id="bicycle10" type="bicycle_bicycle" depart="123.00">
        <route edges="GorSq_1_1 BynPl_2_1 BynPl_2_2 BynPl_2_3 TorPl_2_1 GowSt_2_2"/>
    </vehicle>
    <vehicle id="bicycle11" type="bicycle_bicycle" depart="126.00">
        <route edges="GorSq_2_1 GorSq_2_2 BynPl_2_1 BynPl_2_2 BynPl_2_3 TorPl_2_1 TorPl_2_2 TorPl_2_3 HunSt_1_2"/>
    </vehicle>
    <vehicle id="bicycle12" type="bicycle_bicycle" depart="131.00">
        <route edges="GowSt_2_1 TorPl_1_4 BynPl_1_1 BynPl_1_2 BynPl_1_3 GorSq_1_2 GorSq_1_3"/>
    </vehicle>
    <vehicle id="bicycle13" type="bicycle_bicycle" depart="137.00">
        <route edges="RidGa_2_1 TorPl_1_3 TorPl_1_4 BynPl_1_1 BynPl_1_2 BynPl_1_3 GorSq_2_3"/>
    </vehicle>
    <vehicle id="bicycle14" type="bicycle_bicycle" depart="153.00">
        <route edges="CheMe_1_1 TorPl_1_3 TorPl_1_4 BynPl_1_1 BynPl_1_2 BynPl_1_3 GorSq_2_3"/>
    </vehicle>
    <vehicle id="bicycle15" type="bicycle_bicycle" depart="156.00">
        <route edges="HunSt_1_1 TorPl_1_2 TorPl_1_3 TorPl_1_4 BynPl_1_1 BynPl_1_2 BynPl_1_3 GorSq_1_2 GorSq_1_3"/>
    </vehicle>
    <vehicle id="bicycle16" type="bicycle_bicycle" depart="167.00">
        <route edges="HunSt_2_1 TorPl_1_2 TorPl_1_3 TorPl_1_4 BynPl_1_1 BynPl_1_2 BynPl_1_3 GorSq_1_2 GorSq_1_3"/>
    </vehicle>
    <vehicle id="bicycle17" type="bicycle_bicycle" depart="178.00">
        <route edges="GorSq_1_1 BynPl_2_1 BynPl_2_2 BynPl_2_3 BynPl_1_1 BynPl_1_2 BynPl_1_3 GorSq_2_3"/>
    </vehicle>
    <vehicle id="bicycle18" type="bicycle_bicycle" depart="181.00">
        <route edges="GorSq_2_1 GorSq_2_2 BynPl_2_1 BynPl_2_2 BynPl_2_3 TorPl_2_1 GowSt_2_2"/>
    </vehicle>
    <vehicle id="bicycle19" type="bicycle_bicycle" depart="199.00">
        <route edges="HunSt_1_1 HunSt_1_2"/>
    </vehicle>
    <vehicle id="bicycle20" type="bicycle_bicycle" depart="213.00">
        <route edges="GorSq_2_1 GorSq_2_2 BynPl_2_1 BynPl_2_2 BynPl_2_3 TorPl_2_1 TorPl_2_2 TorPl_2_3 TorPl_2_4"/>
    </vehicle>
    <vehicle id="bicycle21" type="bicycle_bicycle" depart="220.00">
        <route edges="MalSt_2_1 BynPl_1_1 BynPl_1_2 BynPl_1_3 GorSq_2_3"/>
    </vehicle>
    <vehicle id="bicycle22" type="bicycle_bicycle" depart="226.00">
        <route edges="HunSt_2_1 TorPl_1_2 TorPl_1_3 GowSt_2_2"/>
    </vehicle>
    <vehicle id="bicycle23" type="bicycle_bicycle" depart="233.00">
        <route edges="TorPl_1_1 TorPl_1_2 TorPl_1_3 TorPl_2_2 TorPl_2_3 TorPl_2_4"/>
    </vehicle>
    <vehicle id="bicycle24" type="bicycle_bicycle" depart="243.00">
        <route edges="GorSq_2_1 GorSq_2_2 BynPl_2_1 BynPl_2_2 BynPl_2_3 TorPl_2_1 GowSt_2_2"/>
    </vehicle>
    <vehicle id="bicycle25" type="bicycle_bicycle" depart="245.00">
        <route edges="HunSt_1_1 TorPl_2_4"/>
    </vehicle>
    <vehicle id="bicycle26" type="bicycle_bicycle" depart="248.00">
        <route edges="GorSq_2_1 GorSq_2_2 BynPl_2_1 BynPl_2_2 BynPl_2_3 TorPl_2_1 GowSt_2_2"/>
    </vehicle>
    <vehicle id="bicycle27" type="bicycle_bicycle" depart="266.00">
        <route edges="GorSq_2_1 GorSq_2_2 GorSq_2_3"/>
    </vehicle>
    <vehicle id="bicycle28" type="bicycle_bicycle" depart="278.00">
        <route edges="CheMe_1_1 TorPl_1_3 GowSt_1_2"/>
    </vehicle>
    <vehicle id="bicycle29" type="bicycle_bicycle" depart="316.00">
        <route edges="GowSt_1_1 TorPl_1_4 BynPl_1_1 BynPl_1_2 BynPl_1_3 GorSq_2_3"/>
    </vehicle>
    <vehicle id="bicycle30" type="bicycle_bicycle" depart="333.00">
        <route edges="GowSt_1_1 TorPl_1_4 BynPl_1_1 BynPl_1_2 BynPl_1_3 GorSq_1_2 GorSq_1_3"/>
    </vehicle>
    <vehicle id="bicycle31" type="bicycle_bicycle" depart="334.00">
        <route edges="CheMe_1_1 TorPl_1_3 TorPl_1_4 MalSt_1_1"/>
    </vehicle>
    <vehicle id="bicycle32" type="bicycle_bicycle" depart="338.00">
        <route edges="RidGa_2_1 TorPl_1_3 GowSt_1_2"/>
    </vehicle>
    <vehicle id="bicycle33" type="bicycle_bicycle" depart="371.00">
        <route edges="MalSt_2_1 BynPl_1_1 BynPl_1_2 BynPl_1_3 GorSq_2_3"/>
    </vehicle>
    <vehicle id="bicycle34" type="bicycle_bicycle" depart="380.00">
        <route edges="HunSt_2_1 TorPl_1_2 TorPl_1_3 TorPl_1_4 MalSt_1_1"/>
    </vehicle>
    <vehicle id="bicycle35" type="bicycle_bicycle" depart="394.00">
        <route edges="GowSt_2_1 TorPl_1_4 MalSt_1_1"/>
    </vehicle>
    <vehicle id="bicycle36" type="bicycle_bicycle" depart="412.00">
        <route edges="GorSq_2_1 GorSq_2_2 BynPl_2_1 BynPl_2_2 BynPl_2_3 TorPl_2_1 GowSt_2_2"/>
    </vehicle>
    <vehicle id="bicycle37" type="bicycle_bicycle" depart="433.00">
        <route edges="HunSt_2_1 TorPl_1_2 TorPl_1_3 GowSt_2_2"/>
    </vehicle>
    <vehicle id="bicycle38" type="bicycle_bicycle" depart="434.00">
        <route edges="HunSt_2_1 TorPl_1_2 TorPl_1_3 GowSt_1_2"/>
    </vehicle>
    <vehicle id="bicycle39" type="bicycle_bicycle" depart="436.00">
        <route edges="TorPl_1_1 HunSt_1_2"/>
    </vehicle>
    <vehicle id="bicycle40" type="bicycle_bicycle" depart="447.00">
        <route edges="GorSq_1_1 BynPl_2_1 BynPl_2_2 BynPl_2_3 BynPl_1_1 BynPl_1_2 BynPl_1_3 GorSq_2_3"/>
    </vehicle>
    <vehicle id="bicycle41" type="bicycle_bicycle" depart="456.00">
        <route edges="GowSt_2_1 TorPl_1_4 BynPl_1_1 BynPl_1_2 BynPl_1_3 BynPl_2_1 BynPl_2_2 BynPl_2_3 TorPl_2_1 GowSt_1_2"/>
    </vehicle>
    <vehicle id="bicycle42" type="bicycle_bicycle" depart="470.00">
        <route edges="GowSt_2_1 TorPl_1_4 BynPl_1_1 BynPl_1_2 BynPl_1_3 BynPl_2_1 BynPl_2_2 BynPl_2_3 TorPl_2_1 GowSt_1_2"/>
    </vehicle>
    <vehicle id="bicycle43" type="bicycle_bicycle" depart="483.00">
        <route edges="GowSt_2_1 TorPl_1_4 MalSt_1_1"/>
    </vehicle>
    <vehicle id="bicycle44" type="bicycle_bicycle" depart="489.00">
        <route edges="GowSt_2_1 TorPl_2_2 TorPl_2_3 HunSt_1_2"/>
    </vehicle>
    <vehicle id="bicycle45" type="bicycle_bicycle" depart="514.00">
        <route edges="RidGa_2_1 TorPl_1_3 GowSt_1_2"/>
    </vehicle>
    <vehicle id="bicycle46" type="bicycle_bicycle" depart="514.00">
        <route edges="RidGa_2_1 TorPl_1_3 GowSt_1_2"/>
    </vehicle>
    <vehicle id="bicycle47" type="bicycle_bicycle" depart="518.00">
        <route edges="MalSt_2_1 TorPl_2_1 GowSt_2_2"/>
    </vehicle>
    <vehicle id="bicycle48" type="bicycle_bicycle" depart="518.00">
        <route edges="RidGa_2_1 TorPl_1_3 GowSt_1_2"/>
    </vehicle>
    <vehicle id="bicycle49" type="bicycle_bicycle" depart="518.00">
        <route edges="HunSt_1_1 HunSt_1_2"/>
    </vehicle>
    <vehicle id="bicycle50" type="bicycle_bicycle" depart="524.00">
        <route edges="CheMe_1_1 TorPl_1_3 TorPl_1_4 BynPl_1_1 BynPl_1_2 BynPl_1_3 GorSq_1_2 GorSq_1_3"/>
    </vehicle>
    <vehicle id="bicycle51" type="bicycle_bicycle" depart="529.00">
        <route edges="GowSt_2_1 TorPl_1_4 BynPl_1_1 BynPl_1_2 BynPl_1_3 BynPl_2_1 BynPl_2_2 BynPl_2_3 TorPl_2_1 GowSt_1_2"/>
    </vehicle>
    <vehicle id="bicycle52" type="bicycle_bicycle" depart="548.00">
        <route edges="GowSt_1_1 TorPl_1_4 BynPl_1_1 BynPl_1_2 BynPl_1_3 BynPl_2_1 BynPl_2_2 BynPl_2_3 TorPl_2_1 GowSt_2_2"/>
    </vehicle>
    <vehicle id="bicycle53" type="bicycle_bicycle" depart="562.00">
        <route edges="HunSt_1_1 HunSt_1_2"/>
    </vehicle>
    <vehicle id="bicycle54" type="bicycle_bicycle" depart="568.00">
        <route edges="GowSt_2_1 TorPl_1_4 BynPl_1_1 BynPl_1_2 BynPl_1_3 GorSq_2_3"/>
    </vehicle>
    <vehicle id="bicycle55" type="bicycle_bicycle" depart="569.00">
        <route edges="RidGa_2_1 TorPl_1_3 GowSt_1_2"/>
    </vehicle>
    <vehicle id="bicycle56" type="bicycle_bicycle" depart="579.00">
        <route edges="CheMe_1_1 TorPl_1_3 TorPl_1_4 BynPl_1_1 BynPl_1_2 BynPl_1_3 GorSq_2_3"/>
    </vehicle>
    <vehicle id="bicycle57" type="bicycle_bicycle" depart="580.00">
        <route edges="TorPl_1_1 TorPl_1_2 TorPl_1_3 TorPl_1_4 MalSt_1_1"/>
    </vehicle>
    <vehicle id="bicycle58" type="bicycle_bicycle" depart="588.00">
        <route edges="HunSt_2_1 TorPl_1_2 TorPl_1_3 TorPl_1_4 BynPl_1_1 BynPl_1_2 BynPl_1_3 GorSq_2_3"/>
    </vehicle>
    <vehicle id="bicycle59" type="bicycle_bicycle" depart="596.00">
        <route edges="GorSq_2_1 GorSq_2_2 GorSq_1_2 GorSq_1_3"/>
    </vehicle>
    <vehicle id="bicycle60" type="bicycle_bicycle" depart="598.00">
        <route edges="CheMe_1_1 TorPl_2_3 HunSt_1_2"/>
    </vehicle>
    <vehicle id="bicycle61" type="bicycle_bicycle" depart="605.00">
        <route edges="MalSt_2_1 TorPl_2_1 TorPl_2_2 TorPl_2_3 HunSt_1_2"/>
    </vehicle>
    <vehicle id="bicycle62" type="bicycle_bicycle" depart="609.00">
        <route edges="HunSt_2_1 TorPl_2_4"/>
    </vehicle>
    <vehicle id="bicycle63" type="bicycle_bicycle" depart="635.00">
        <route edges="HunSt_1_1 TorPl_1_2 TorPl_1_3 TorPl_1_4 BynPl_1_1 BynPl_1_2 BynPl_1_3 GorSq_1_2 GorSq_1_3"/>
    </vehicle>
    <vehicle id="bicycle64" type="bicycle_bicycle" depart="638.00">
        <route edges="GowSt_2_1 TorPl_2_2 TorPl_2_3 TorPl_2_4"/>
    </vehicle>
    <vehicle id="bicycle65" type="bicycle_bicycle" depart="656.00">
        <route edges="GorSq_2_1 GorSq_2_2 BynPl_2_1 BynPl_2_2 BynPl_2_3 TorPl_2_1 GowSt_2_2"/>
    </vehicle>
    <vehicle id="bicycle66" type="bicycle_bicycle" depart="674.00">
        <route edges="HunSt_1_1 HunSt_1_2"/>
    </vehicle>
    <vehicle id="bicycle67" type="bicycle_bicycle" depart="685.00">
        <route edges="GowSt_2_1 TorPl_1_4 BynPl_1_1 BynPl_1_2 BynPl_1_3 BynPl_2_1 BynPl_2_2 BynPl_2_3 TorPl_2_1 GowSt_1_2"/>
    </vehicle>
    <vehicle id="bicycle68" type="bicycle_bicycle" depart="694.00">
        <route edges="GorSq_2_1 GorSq_2_2 BynPl_2_1 BynPl_2_2 BynPl_2_3 TorPl_2_1 GowSt_2_2"/>
    </vehicle>
    <vehicle id="bicycle69" type="bicycle_bicycle" depart="701.00">
        <route edges="CheMe_1_1 TorPl_2_3 HunSt_1_2"/>
    </vehicle>
    <vehicle id="bicycle70" type="bicycle_bicycle" depart="706.00">
        <route edges="TorPl_1_1 TorPl_1_2 TorPl_1_3 TorPl_2_2 TorPl_2_3 TorPl_2_4"/>
    </vehicle>
    <vehicle id="bicycle71" type="bicycle_bicycle" depart="713.00">
        <route edges="RidGa_2_1 TorPl_1_3 TorPl_1_4 BynPl_1_1 BynPl_1_2 BynPl_1_3 GorSq_1_2 GorSq_1_3"/>
    </vehicle>
    <vehicle id="bicycle72" type="bicycle_bicycle" depart="721.00">
        <route edges="GowSt_2_1 TorPl_1_4 BynPl_1_1 BynPl_1_2 BynPl_1_3 BynPl_2_1 BynPl_2_2 BynPl_2_3 TorPl_2_1 GowSt_1_2"/>
    </vehicle>
    <vehicle id="bicycle73" type="bicycle_bicycle" depart="727.00">
        <route edges="RidGa_2_1 TorPl_1_3 TorPl_1_4 BynPl_1_1 BynPl_1_2 BynPl_1_3 GorSq_1_2 GorSq_1_3"/>
    </vehicle>
    <vehicle id="bicycle74" type="bicycle_bicycle" depart="750.00">
        <route edges="GorSq_1_1 BynPl_2_1 BynPl_2_2 BynPl_2_3 MalSt_1_1"/>
    </vehicle>
    <vehicle id="bicycle75" type="bicycle_bicycle" depart="755.00">
        <route edges="GowSt_1_1 TorPl_2_2 TorPl_2_3 HunSt_1_2"/>
    </vehicle>
    <vehicle id="bicycle76" type="bicycle_bicycle" depart="769.00">
        <route edges="GowSt_1_1 TorPl_2_2 TorPl_2_3 HunSt_1_2"/>
    </vehicle>
    <vehicle id="bicycle77" type="bicycle_bicycle" depart="820.00">
        <route edges="CheMe_1_1 TorPl_1_3 GowSt_1_2"/>
    </vehicle>
    <vehicle id="bicycle78" type="bicycle_bicycle" depart="821.00">
        <route edges="TorPl_1_1 TorPl_1_2 TorPl_1_3 GowSt_2_2"/>
    </vehicle>
    <vehicle id="bicycle79" type="bicycle_bicycle" depart="823.00">
        <route edges="RidGa_2_1 TorPl_2_3 HunSt_1_2"/>
    </vehicle>
    <vehicle id="bicycle80" type="bicycle_bicycle" depart="827.00">
        <route edges="GowSt_2_1 TorPl_1_4 MalSt_1_1"/>
    </vehicle>
    <vehicle id="bicycle81" type="bicycle_bicycle" depart="828.00">
        <route edges="HunSt_1_1 TorPl_1_2 TorPl_1_3 GowSt_2_2"/>
    </vehicle>
    <vehicle id="bicycle82" type="bicycle_bicycle" depart="829.00">
        <route edges="GowSt_2_1 TorPl_1_4 MalSt_1_1"/>
    </vehicle>
    <vehicle id="bicycle83" type="bicycle_bicycle" depart="830.00">
        <route edges="HunSt_2_1 TorPl_1_2 TorPl_1_3 TorPl_2_2 TorPl_2_3 HunSt_1_2"/>
    </vehicle>
    <vehicle id="bicycle84" type="bicycle_bicycle" depart="830.00">
        <route edges="RidGa_2_1 TorPl_1_3 GowSt_1_2"/>
    </vehicle>
    <vehicle id="bicycle85" type="bicycle_bicycle" depart="845.00">
        <route edges="RidGa_2_1 TorPl_1_3 GowSt_2_2"/>
    </vehicle>
    <vehicle id="bicycle86" type="bicycle_bicycle" depart="863.00">
        <route edges="TorPl_1_1 TorPl_1_2 TorPl_1_3 GowSt_2_2"/>
    </vehicle>
    <vehicle id="bicycle87" type="bicycle_bicycle" depart="889.00">
        <route edges="HunSt_1_1 TorPl_1_2 TorPl_1_3 TorPl_1_4 MalSt_1_1"/>
    </vehicle>
    <vehicle id="bicycle88" type="bicycle_bicycle" depart="893.00">
        <route edges="MalSt_2_1 TorPl_2_1 TorPl_1_4 MalSt_1_1"/>
    </vehicle>
    <vehicle id="bicycle89" type="bicycle_bicycle" depart="908.00">
        <route edges="HunSt_1_1 TorPl_1_2 TorPl_1_3 GowSt_1_2"/>
    </vehicle>
    <vehicle id="bicycle90" type="bicycle_bicycle" depart="908.00">
        <route edges="HunSt_1_1 TorPl_2_4"/>
    </vehicle>
    <vehicle id="bicycle91" type="bicycle_bicycle" depart="921.00">
        <route edges="CheMe_1_1 TorPl_1_3 TorPl_1_4 BynPl_1_1 BynPl_1_2 BynPl_1_3 GorSq_2_3"/>
    </vehicle>
    <vehicle id="bicycle92" type="bicycle_bicycle" depart="932.00">
        <route edges="GowSt_2_1 TorPl_2_2 TorPl_2_3 TorPl_2_4"/>
    </vehicle>
    <vehicle id="bicycle93" type="bicycle_bicycle" depart="935.00">
        <route edges="GorSq_1_1 BynPl_2_1 BynPl_2_2 BynPl_2_3 TorPl_2_1 GowSt_2_2"/>
    </vehicle>
    <vehicle id="bicycle94" type="bicycle_bicycle" depart="964.00">
        <route edges="MalSt_2_1 TorPl_2_1 GowSt_2_2"/>
    </vehicle>
    <vehicle id="bicycle95" type="bicycle_bicycle" depart="964.00">
        <route edges="GowSt_1_1 TorPl_1_4 BynPl_1_1 BynPl_1_2 BynPl_1_3 BynPl_2_1 BynPl_2_2 BynPl_2_3 TorPl_2_1 GowSt_2_2"/>
    </vehicle>
    <vehicle id="bicycle96" type="bicycle_bicycle" depart="965.00">
        <route edges="HunSt_1_1 TorPl_1_2 TorPl_1_3 TorPl_1_4 MalSt_1_1"/>
    </vehicle>
    <vehicle id="bicycle97" type="bicycle_bicycle" depart="974.00">
        <route edges="GorSq_1_1 BynPl_2_1 BynPl_2_2 BynPl_2_3 TorPl_2_1 GowSt_1_2"/>
    </vehicle>
    <vehicle id="bicycle98" type="bicycle_bicycle" depart="975.00">
        <route edges="HunSt_1_1 TorPl_1_2 TorPl_1_3 TorPl_1_4 MalSt_1_1"/>
    </vehicle>
    <vehicle id="bicycle99" type="bicycle_bicycle" depart="979.00">
        <route edges="CheMe_1_1 TorPl_2_3 TorPl_2_4"/>
    </vehicle>
    <vehicle id="bicycle100" type="bicycle_bicycle" depart="998.00">
        <route edges="RidGa_2_1 TorPl_1_3 GowSt_1_2"/>
    </vehicle>
    <vehicle id="bicycle101" type="bicycle_bicycle" depart="1001.00">
        <route edges="HunSt_2_1 TorPl_2_4"/>
    </vehicle>
    <vehicle id="bicycle102" type="bicycle_bicycle" depart="1009.00">
        <route edges="GorSq_1_1 BynPl_2_1 BynPl_2_2 BynPl_2_3 TorPl_2_1 GowSt_1_2"/>
    </vehicle>
    <vehicle id="bicycle103" type="bicycle_bicycle" depart="1010.00">
        <route edges="CheMe_1_1 TorPl_1_3 TorPl_1_4 BynPl_1_1 BynPl_1_2 BynPl_1_3 GorSq_2_3"/>
    </vehicle>
    <vehicle id="bicycle104" type="bicycle_bicycle" depart="1022.00">
        <route edges="GowSt_2_1 TorPl_2_2 TorPl_2_3 TorPl_2_4"/>
    </vehicle>
    <vehicle id="bicycle105" type="bicycle_bicycle" depart="1027.00">
        <route edges="GorSq_1_1 BynPl_2_1 BynPl_2_2 BynPl_2_3 MalSt_1_1"/>
    </vehicle>
    <vehicle id="bicycle106" type="bicycle_bicycle" depart="1033.00">
        <route edges="RidGa_2_1 TorPl_1_3 GowSt_1_2"/>
    </vehicle>
    <vehicle id="bicycle107" type="bicycle_bicycle" depart="1042.00">
        <route edges="MalSt_2_1 BynPl_1_1 BynPl_1_2 BynPl_1_3 GorSq_1_2 GorSq_1_3"/>
    </vehicle>
    <vehicle id="bicycle108" type="bicycle_bicycle" depart="1047.00">
        <route edges="HunSt_1_1 TorPl_1_2 TorPl_1_3 TorPl_1_4 BynPl_1_1 BynPl_1_2 BynPl_1_3 GorSq_2_3"/>
    </vehicle>
    <vehicle id="bicycle109" type="bicycle_bicycle" depart="1059.00">
        <route edges="CheMe_1_1 TorPl_1_3 TorPl_1_4 BynPl_1_1 BynPl_1_2 BynPl_1_3 GorSq_1_2 GorSq_1_3"/>
    </vehicle>
    <vehicle id="bicycle110" type="bicycle_bicycle" depart="1067.00">
        <route edges="GowSt_1_1 TorPl_1_4 BynPl_1_1 BynPl_1_2 BynPl_1_3 GorSq_1_2 GorSq_1_3"/>
    </vehicle>
    <vehicle id="bicycle111" type="bicycle_bicycle" depart="1067.00">
        <route edges="CheMe_1_1 TorPl_2_3 HunSt_1_2"/>
    </vehicle>
    <vehicle id="bicycle112" type="bicycle_bicycle" depart="1075.00">
        <route edges="HunSt_2_1 TorPl_2_4"/>
    </vehicle>
    <vehicle id="bicycle113" type="bicycle_bicycle" depart="1086.00">
        <route edges="CheMe_1_1 TorPl_1_3 GowSt_1_2"/>
    </vehicle>
    <vehicle id="bicycle114" type="bicycle_bicycle" depart="1092.00">
        <route edges="HunSt_2_1 TorPl_1_2 TorPl_1_3 GowSt_1_2"/>
    </vehicle>
    <vehicle id="bicycle115" type="bicycle_bicycle" depart="1106.00">
        <route edges="TorPl_1_1 TorPl_1_2 TorPl_1_3 TorPl_1_4 BynPl_1_1 BynPl_1_2 BynPl_1_3 GorSq_1_2 GorSq_1_3"/>
    </vehicle>
    <vehicle id="bicycle116" type="bicycle_bicycle" depart="1124.00">
        <route edges="GorSq_2_1 GorSq_2_2 BynPl_2_1 BynPl_2_2 BynPl_2_3 MalSt_1_1"/>
    </vehicle>
    <vehicle id="bicycle117" type="bicycle_bicycle" depart="1145.00">
        <route edges="CheMe_1_1 TorPl_1_3 TorPl_1_4 MalSt_1_1"/>
    </vehicle>
    <vehicle id="bicycle118" type="bicycle_bicycle" depart="1154.00">
        <route edges="HunSt_1_1 HunSt_1_2"/>
    </vehicle>
    <vehicle id="bicycle119" type="bicycle_bicycle" depart="1187.00">
        <route edges="GowSt_2_1 TorPl_1_4 BynPl_1_1 BynPl_1_2 BynPl_1_3 BynPl_2_1 BynPl_2_2 BynPl_2_3 TorPl_2_1 GowSt_1_2"/>
    </vehicle>
    <vehicle id="bicycle120" type="bicycle_bicycle" depart="1192.00">
        <route edges="CheMe_1_1 TorPl_1_3 TorPl_1_4 BynPl_1_1 BynPl_1_2 BynPl_1_3 GorSq_2_3"/>
    </vehicle>
    <vehicle id="bicycle121" type="bicycle_bicycle" depart="1206.00">
        <route edges="GorSq_2_1 GorSq_2_2 GorSq_2_3"/>
    </vehicle>
    <vehicle id="bicycle122" type="bicycle_bicycle" depart="1212.00">
        <route edges="HunSt_1_1 TorPl_1_2 TorPl_1_3 GowSt_1_2"/>
    </vehicle>
    <vehicle id="bicycle123" type="bicycle_bicycle" depart="1218.00">
        <route edges="TorPl_1_1 HunSt_1_2"/>
    </vehicle>
    <vehicle id="bicycle124" type="bicycle_bicycle" depart="1225.00">
        <route edges="GorSq_2_1 GorSq_2_2 BynPl_2_1 BynPl_2_2 BynPl_2_3 TorPl_2_1 GowSt_1_2"/>
    </vehicle>
    <vehicle id="bicycle125" type="bicycle_bicycle" depart="1241.00">
        <route edges="MalSt_2_1 TorPl_2_1 TorPl_2_2 TorPl_2_3 HunSt_1_2"/>
    </vehicle>
    <vehicle id="bicycle126" type="bicycle_bicycle" depart="1243.00">
        <route edges="GowSt_1_1 TorPl_1_4 BynPl_1_1 BynPl_1_2 BynPl_1_3 BynPl_2_1 BynPl_2_2 BynPl_2_3 TorPl_2_1 GowSt_2_2"/>
    </vehicle>
    <vehicle id="bicycle127" type="bicycle_bicycle" depart="1257.00">
        <route edges="GorSq_1_1 BynPl_2_1 BynPl_2_2 BynPl_2_3 TorPl_2_1 TorPl_2_2 TorPl_2_3 HunSt_1_2"/>
    </vehicle>
    <vehicle id="bicycle128" type="bicycle_bicycle" depart="1289.00">
        <route edges="CheMe_1_1 TorPl_1_3 GowSt_2_2"/>
    </vehicle>
    <vehicle id="bicycle129" type="bicycle_bicycle" depart="1294.00">
        <route edges="TorPl_1_1 TorPl_1_2 TorPl_1_3 TorPl_2_2 TorPl_2_3 TorPl_2_4"/>
    </vehicle>
    <vehicle id="bicycle130" type="bicycle_bicycle" depart="1305.00">
        <route edges="MalSt_2_1 TorPl_2_1 GowSt_1_2"/>
    </vehicle>
    <vehicle id="bicycle131" type="bicycle_bicycle" depart="1310.00">
        <route edges="GorSq_2_1 GorSq_2_2 BynPl_2_1 BynPl_2_2 BynPl_2_3 TorPl_2_1 TorPl_2_2 TorPl_2_3 HunSt_1_2"/>
    </vehicle>
    <vehicle id="bicycle132" type="bicycle_bicycle" depart="1317.00">
        <route edges="TorPl_1_1 HunSt_1_2"/>
    </vehicle>
    <vehicle id="bicycle133" type="bicycle_bicycle" depart="1326.00">
        <route edges="CheMe_1_1 TorPl_1_3 GowSt_1_2"/>
    </vehicle>
    <vehicle id="bicycle134" type="bicycle_bicycle" depart="1329.00">
        <route edges="TorPl_1_1 HunSt_1_2"/>
    </vehicle>
    <vehicle id="bicycle135" type="bicycle_bicycle" depart="1338.00">
        <route edges="TorPl_1_1 TorPl_1_2 TorPl_1_3 TorPl_2_2 TorPl_2_3 TorPl_2_4"/>
    </vehicle>
    <vehicle id="bicycle136" type="bicycle_bicycle" depart="1344.00">
        <route edges="TorPl_1_1 TorPl_1_2 TorPl_1_3 GowSt_1_2"/>
    </vehicle>
    <vehicle id="bicycle137" type="bicycle_bicycle" depart="1360.00">
        <route edges="HunSt_1_1 HunSt_1_2"/>
    </vehicle>
    <vehicle id="bicycle138" type="bicycle_bicycle" depart="1360.00">
        <route edges="GorSq_2_1 GorSq_2_2 BynPl_2_1 BynPl_2_2 BynPl_2_3 TorPl_2_1 TorPl_2_2 TorPl_2_3 TorPl_2_4"/>
    </vehicle>
    <vehicle id="bicycle139" type="bicycle_bicycle" depart="1379.00">
        <route edges="RidGa_2_1 TorPl_1_3 GowSt_1_2"/>
    </vehicle>
    <vehicle id="bicycle140" type="bicycle_bicycle" depart="1388.00">
        <route edges="CheMe_1_1 TorPl_1_3 TorPl_1_4 BynPl_1_1 BynPl_1_2 BynPl_1_3 GorSq_2_3"/>
    </vehicle>
    <vehicle id="bicycle141" type="bicycle_bicycle" depart="1393.00">
        <route edges="GorSq_1_1 BynPl_2_1 BynPl_2_2 BynPl_2_3 BynPl_1_1 BynPl_1_2 BynPl_1_3 GorSq_2_3"/>
    </vehicle>
    <vehicle id="bicycle142" type="bicycle_bicycle" depart="1414.00">
        <route edges="HunSt_1_1 TorPl_1_2 TorPl_1_3 TorPl_1_4 BynPl_1_1 BynPl_1_2 BynPl_1_3 GorSq_2_3"/>
    </vehicle>
    <vehicle id="bicycle143" type="bicycle_bicycle" depart="1418.00">
        <route edges="GowSt_2_1 TorPl_2_2 TorPl_2_3 TorPl_2_4"/>
    </vehicle>
    <vehicle id="bicycle144" type="bicycle_bicycle" depart="1427.00">
        <route edges="GorSq_2_1 GorSq_2_2 GorSq_1_2 GorSq_1_3"/>
    </vehicle>
    <vehicle id="bicycle145" type="bicycle_bicycle" depart="1432.00">
        <route edges="MalSt_2_1 TorPl_2_1 GowSt_1_2"/>
    </vehicle>
    <vehicle id="bicycle146" type="bicycle_bicycle" depart="1447.00">
        <route edges="GowSt_2_1 GowSt_2_2"/>
    </vehicle>
    <vehicle id="bicycle147" type="bicycle_bicycle" depart="1455.00">
        <route edges="GorSq_1_1 BynPl_2_1 BynPl_2_2 BynPl_2_3 MalSt_1_1"/>
    </vehicle>
    <vehicle id="bicycle148" type="bicycle_bicycle" depart="1462.00">
        <route edges="CheMe_1_1 TorPl_2_3 TorPl_2_4"/>
    </vehicle>
    <vehicle id="bicycle149" type="bicycle_bicycle" depart="1464.00">
        <route edges="HunSt_1_1 TorPl_1_2 TorPl_1_3 TorPl_1_4 BynPl_1_1 BynPl_1_2 BynPl_1_3 GorSq_2_3"/>
    </vehicle>
    <vehicle id="bicycle150" type="bicycle_bicycle" depart="1466.00">
        <route edges="TorPl_1_1 TorPl_1_2 TorPl_1_3 GowSt_2_2"/>
    </vehicle>
    <vehicle id="bicycle151" type="bicycle_bicycle" depart="1471.00">
        <route edges="RidGa_2_1 TorPl_2_3 HunSt_1_2"/>
    </vehicle>
    <vehicle id="bicycle152" type="bicycle_bicycle" depart="1487.00">
        <route edges="CheMe_1_1 TorPl_1_3 TorPl_1_4 MalSt_1_1"/>
    </vehicle>
    <vehicle id="bicycle153" type="bicycle_bicycle" depart="1490.00">
        <route edges="TorPl_1_1 TorPl_1_2 TorPl_1_3 GowSt_2_2"/>
    </vehicle>
    <vehicle id="bicycle154" type="bicycle_bicycle" depart="1500.00">
        <route edges="CheMe_1_1 TorPl_1_3 TorPl_1_4 BynPl_1_1 BynPl_1_2 BynPl_1_3 GorSq_1_2 GorSq_1_3"/>
    </vehicle>
    <vehicle id="bicycle155" type="bicycle_bicycle" depart="1513.00">
        <route edges="CheMe_1_1 TorPl_2_3 TorPl_2_4"/>
    </vehicle>
    <vehicle id="bicycle156" type="bicycle_bicycle" depart="1516.00">
        <route edges="GorSq_1_1 BynPl_2_1 BynPl_2_2 BynPl_2_3 BynPl_1_1 BynPl_1_2 BynPl_1_3 GorSq_2_3"/>
    </vehicle>
    <vehicle id="bicycle157" type="bicycle_bicycle" depart="1533.00">
        <route edges="GorSq_2_1 GorSq_2_2 BynPl_2_1 BynPl_2_2 BynPl_2_3 TorPl_2_1 TorPl_2_2 TorPl_2_3 TorPl_2_4"/>
    </vehicle>
    <vehicle id="bicycle158" type="bicycle_bicycle" depart="1540.00">
        <route edges="HunSt_1_1 TorPl_2_4"/>
    </vehicle>
    <vehicle id="bicycle159" type="bicycle_bicycle" depart="1542.00">
        <route edges="RidGa_2_1 TorPl_2_3 HunSt_1_2"/>
    </vehicle>
    <vehicle id="bicycle160" type="bicycle_bicycle" depart="1555.00">
        <route edges="MalSt_2_1 TorPl_2_1 TorPl_1_4 MalSt_1_1"/>
    </vehicle>
    <vehicle id="bicycle161" type="bicycle_bicycle" depart="1567.00">
        <route edges="CheMe_1_1 TorPl_1_3 TorPl_1_4 MalSt_1_1"/>
    </vehicle>
    <vehicle id="bicycle162" type="bicycle_bicycle" depart="1584.00">
        <route edges="MalSt_2_1 TorPl_2_1 TorPl_1_4 MalSt_1_1"/>
    </vehicle>
    <vehicle id="bicycle163" type="bicycle_bicycle" depart="1589.00">
        <route edges="CheMe_1_1 TorPl_1_3 GowSt_1_2"/>
    </vehicle>
    <vehicle id="bicycle164" type="bicycle_bicycle" depart="1607.00">
        <route edges="GorSq_2_1 GorSq_2_2 GorSq_1_2 GorSq_1_3"/>
    </vehicle>
    <vehicle id="bicycle165" type="bicycle_bicycle" depart="1614.00">
        <route edges="RidGa_2_1 TorPl_2_3 HunSt_1_2"/>
    </vehicle>
    <vehicle id="bicycle166" type="bicycle_bicycle" depart="1628.00">
        <route edges="GorSq_2_1 GorSq_2_2 GorSq_1_2 GorSq_1_3"/>
    </vehicle>
    <vehicle id="bicycle167" type="bicycle_bicycle" depart="1654.00">
        <route edges="HunSt_2_1 TorPl_1_2 TorPl_1_3 TorPl_1_4 BynPl_1_1 BynPl_1_2 BynPl_1_3 GorSq_1_2 GorSq_1_3"/>
    </vehicle>
    <vehicle id="bicycle168" type="bicycle_bicycle" depart="1669.00">
        <route edges="TorPl_1_1 TorPl_1_2 TorPl_1_3 TorPl_1_4 MalSt_1_1"/>
    </vehicle>
    <vehicle id="bicycle169" type="bicycle_bicycle" depart="1684.00">
        <route edges="CheMe_1_1 TorPl_1_3 TorPl_1_4 BynPl_1_1 BynPl_1_2 BynPl_1_3 GorSq_1_2 GorSq_1_3"/>
    </vehicle>
    <vehicle id="bicycle170" type="bicycle_bicycle" depart="1697.00">
        <route edges="GorSq_1_1 BynPl_2_1 BynPl_2_2 BynPl_2_3 MalSt_1_1"/>
    </vehicle>
    <vehicle id="bicycle171" type="bicycle_bicycle" depart="1704.00">
        <route edges="HunSt_2_1 TorPl_1_2 TorPl_1_3 GowSt_1_2"/>
    </vehicle>
    <vehicle id="bicycle172" type="bicycle_bicycle" depart="1720.00">
        <route edges="HunSt_1_1 TorPl_1_2 TorPl_1_3 GowSt_1_2"/>
    </vehicle>
    <vehicle id="bicycle173" type="bicycle_bicycle" depart="1720.00">
        <route edges="RidGa_2_1 TorPl_2_3 HunSt_1_2"/>
    </vehicle>
    <vehicle id="bicycle174" type="bicycle_bicycle" depart="1771.00">
        <route edges="TorPl_1_1 TorPl_1_2 TorPl_1_3 GowSt_2_2"/>
    </vehicle>
    <vehicle id="bicycle175" type="bicycle_bicycle" depart="1777.00">
        <route edges="GowSt_2_1 TorPl_1_4 BynPl_1_1 BynPl_1_2 BynPl_1_3 GorSq_1_2 GorSq_1_3"/>
    </vehicle>
    <vehicle id="bicycle176" type="bicycle_bicycle" depart="1789.00">
        <route edges="GorSq_1_1 BynPl_2_1 BynPl_2_2 BynPl_2_3 TorPl_2_1 TorPl_2_2 TorPl_2_3 HunSt_1_2"/>
    </vehicle>
    <vehicle id="bicycle177" type="bicycle_bicycle" depart="1790.00">
        <route edges="MalSt_2_1 BynPl_1_1 BynPl_1_2 BynPl_1_3 GorSq_2_3"/>
    </vehicle>