<?xml version="1.0" encoding="UTF-8"?>

<!-- generated on 2025-11-04 10:49:54.380843 by randomTrips.py v1_24_0+0000-b72eb3fabc8
<configuration>
    <net-file value="../networks/demo.net.xml"/>
    <output-trip-file value="../routes/demo/bicycle.trips.xml"/>
    <route-file value="../routes/demo/bicycle.rou.xml"/>
    <prefix value="bicycle"/>
    <vehicle-class value="bicycle"/>
    <fringe-factor value="max"/>
    <seed value="43"/>
    <end value="1000.0"/>
    <period value="10.0"/>
    <poisson value="True"/>
</configuration>
-->

<routes xmlns:xsi="http://www.w3.org/2001/XMLSchema-instance" xsi:noNamespaceSchemaLocation="http://sumo.dlr.de/xsd/routes_file.xsd">
    <vType id="bicycle_bicycle" vClass="bicycle"/>
    <trip id="bicycle0" depart="0.00" from="CheMe_1_1" to="HunSt_1_2" type="bicycle_bicycle"/>
    <trip id="bicycle1" depart="10.00" from="GorSq_1_1" to="GowSt_2_2" type="bicycle_bicycle"/>
    <trip id="bicycle2" depart="20.00" from="HunSt_2_1" to="MalSt_1_1" type="bicycle_bicycle"/>
    <trip id="bicycle3" depart="30.00" from="GowSt_2_1" to="GowSt_2_2" type="bicycle_bicycle"/>
    <trip id="bicycle4" depart="40.00" from="CheMe_1_1" to="GowSt_2_2" type="bicycle_bicycle"/>
    <trip id="bicycle5" depart="50.00" from="GowSt_1_1" to="MalSt_1_1" type="bicycle_bicycle"/>
    <trip id="bicycle6" depart="60.00" from="HunSt_1_1" to="MalSt_1_1" type="bicycle_bicycle"/>
    <trip id="bicycle7" depart="70.00" from="GowSt_2_1" to="GorSq_2_3" type="bicycle_bicycle"/>
    <trip id="bicycle8" depart="80.00" from="RidGa_2_1" to="MalSt_1_1" type="bicycle_bicycle"/>
    <trip id="bicycle9" depart="90.00" from="GowSt_1_1" to="GorSq_1_3" type="bicycle_bicycle"/>
    <trip id="bicycle10" depart="100.00" from="HunSt_1_1" to="GowSt_2_2" type="bicycle_bicycle"/>
    <trip id="bicycle11" depart="110.00" from="MalSt_2_1" to="HunSt_1_2" type="bicycle_bicycle"/>
    <trip id="bicycle12" depart="120.00" from="HunSt_1_1" to="HunSt_1_2" type="bicycle_bicycle"/>
    <trip id="bicycle13" depart="130.00" from="GowSt_1_1" to="GorSq_1_3" type="bicycle_bicycle"/>
    <trip id="bicycle14" depart="140.00" from="CheMe_1_1" to="TorPl_2_4" type="bicycle_bicycle"/>
    <trip id="bicycle15" depart="150.00" from="RidGa_2_1" to="GowSt_1_2" type="bicycle_bicycle"/>
    <trip id="bicycle16" depart="160.00" from="RidGa_2_1" to="GowSt_2_2" type="bicycle_bicycle"/>
    <trip id="bicycle17" depart="170.00" from="GorSq_1_1" to="MalSt_1_1" type="bicycle_bicycle"/>
    <trip id="bicycle18" depart="180.00" from="HunSt_1_1" to="TorPl_2_4" type="bicycle_bicycle"/>
    <trip id="bicycle19" depart="190.00" from="HunSt_2_1" to="GorSq_1_3" type="bicycle_bicycle"/>
    <trip id="bicycle20" depart="200.00" from="HunSt_2_1" to="MalSt_1_1" type="bicycle_bicycle"/>
    <trip id="bicycle21" depart="210.00" from="RidGa_2_1" to="GowSt_1_2" type="bicycle_bicycle"/>
    <trip id="bicycle22" depart="220.00" from="HunSt_1_1" to="HunSt_1_2" type="bicycle_bicycle"/>
    <trip id="bicycle23" depart="230.00" from="GorSq_1_1" to="MalSt_1_1" type="bicycle_bicycle"/>
    <trip id="bicycle24" depart="240.00" from="MalSt_2_1" to="GorSq_1_3" type="bicycle_bicycle"/>
    <trip id="bicycle25" depart="250.00" from="HunSt_1_1" to="GowSt_1_2" type="bicycle_bicycle"/>
    <trip id="bicycle26" depart="260.00" from="GorSq_1_1" to="HunSt_1_2" type="bicycle_bicycle"/>
    <trip id="bicycle27" depart="270.00" from="TorPl_1_1" to="GowSt_2_2" type="bicycle_bicycle"/>
    <trip id="bicycle28" depart="280.00" from="GorSq_1_1" to="GowSt_2_2" type="bicycle_bicycle"/>
    <trip id="bicycle29" depart="290.00" from="MalSt_2_1" to="TorPl_2_4" type="bicycle_bicycle"/>
    <trip id="bicycle30" depart="300.00" from="MalSt_2_1" to="GorSq_1_3" type="bicycle_bicycle"/>
    <trip id="bicycle31" depart="310.00" from="TorPl_1_1" to="HunSt_1_2" type="bicycle_bicycle"/>
    <trip id="bicycle32" depart="320.00" from="CheMe_1_1" to="GorSq_1_3" type="bicycle_bicycle"/>
    <trip id="bicycle33" depart="330.00" from="CheMe_1_1" to="HunSt_1_2" type="bicycle_bicycle"/>
    <trip id="bicycle34" depart="340.00" from="GorSq_1_1" to="MalSt_1_1" type="bicycle_bicycle"/>
    <trip id="bicycle35" depart="350.00" from="GorSq_1_1" to="GowSt_2_2" type="bicycle_bicycle"/>
    <trip id="bicycle36" depart="360.00" from="GowSt_2_1" to="GorSq_1_3" type="bicycle_bicycle"/>
    <trip id="bicycle37" depart="370.00" from="CheMe_1_1" to="TorPl_2_4" type="bicycle_bicycle"/>
    <trip id="bicycle38" depart="380.00" from="TorPl_1_1" to="GorSq_1_3" type="bicycle_bicycle"/>
    <trip id="bicycle39" depart="390.00" from="MalSt_2_1" to="TorPl_2_4" type="bicycle_bicycle"/>
    <trip id="bicycle40" depart="400.00" from="TorPl_1_1" to="TorPl_2_4" type="bicycle_bicycle"/>
    <trip id="bicycle41" depart="410.00" from="GowSt_1_1" to="MalSt_1_1" type="bicycle_bicycle"/>
    <trip id="bicycle42" depart="420.00" from="GowSt_2_1" to="TorPl_2_4" type="bicycle_bicycle"/>
    <trip id="bicycle43" depart="430.00" from="MalSt_2_1" to="MalSt_1_1" type="bicycle_bicycle"/>
    <trip id="bicycle44" depart="440.00" from="RidGa_2_1" to="GowSt_1_2" type="bicycle_bicycle"/>
    <trip id="bicycle45" depart="450.00" from="MalSt_2_1" to="GorSq_1_3" type="bicycle_bicycle"/>
    <trip id="bicycle46" depart="460.00" from="GorSq_2_1" to="TorPl_2_4" type="bicycle_bicycle"/>
    <trip id="bicycle47" depart="470.00" from="GowSt_2_1" to="HunSt_1_2" type="bicycle_bicycle"/>
    <trip id="bicycle48" depart="480.00" from="HunSt_1_1" to="GorSq_2_3" type="bicycle_bicycle"/>
    <trip id="bicycle49" depart="490.00" from="HunSt_1_1" to="TorPl_2_4" type="bicycle_bicycle"/>
    <trip id="bicycle50" depart="500.00" from="GowSt_1_1" to="GowSt_1_2" type="bicycle_bicycle"/>
    <trip id="bicycle51" depart="510.00" from="GorSq_1_1" to="GorSq_2_3" type="bicycle_bicycle"/>
    <trip id="bicycle52" depart="520.00" from="RidGa_2_1" to="HunSt_1_2" type="bicycle_bicycle"/>
    <trip id="bicycle53" depart="530.00" from="TorPl_1_1" to="HunSt_1_2" type="bicycle_bicycle"/>
    <trip id="bicycle54" depart="540.00" from="TorPl_1_1" to="GorSq_2_3" type="bicycle_bicycle"/>
    <trip id="bicycle55" depart="550.00" from="GorSq_1_1" to="GorSq_2_3" type="bicycle_bicycle"/>
    <trip id="bicycle56" depart="560.00" from="GowSt_1_1" to="TorPl_2_4" type="bicycle_bicycle"/>
    <trip id="bicycle57" depart="570.00" from="GorSq_2_1" to="GowSt_2_2" type="bicycle_bicycle"/>
    <trip id="bicycle58" depart="580.00" from="CheMe_1_1" to="GorSq_1_3" type="bicycle_bicycle"/>
    <trip id="bicycle59" depart="590.00" from="HunSt_1_1" to="HunSt_1_2" type="bicycle_bicycle"/>
    <trip id="bicycle60" depart="600.00" from="HunSt_1_1" to="TorPl_2_4" type="bicycle_bicycle"/>
    <trip id="bicycle61" depart="610.00" from="RidGa_2_1" to="TorPl_2_4" type="bicycle_bicycle"/>
    <trip id="bicycle62" depart="620.00" from="HunSt_1_1" to="GorSq_2_3" type="bicycle_bicycle"/>
    <trip id="bicycle63" depart="630.00" from="GorSq_1_1" to="MalSt_1_1" type="bicycle_bicycle"/>
    <trip id="bicycle64" depart="640.00" from="GorSq_1_1" to="GorSq_1_3" type="bicycle_bicycle"/>
    <trip id="bicycle65" depart="650.00" from="HunSt_2_1" to="GorSq_1_3" type="bicycle_bicycle"/>
    <trip id="bicycle66" depart="660.00" from="HunSt_2_1" to="GorSq_2_3" type="bicycle_bicycle"/>
    <trip id="bicycle67" depart="670.00" from="GowSt_2_1" to="GorSq_1_3" type="bicycle_bicycle"/>
    <trip id="bicycle68" depart="680.00" from="GowSt_1_1" to="GowSt_1_2" type="bicycle_bicycle"/>
    <trip id="bicycle69" depart="690.00" from="GorSq_2_1" to="GorSq_1_3" type="bicycle_bicycle"/>
    <trip id="bicycle70" depart="700.00" from="HunSt_1_1" to="HunSt_1_2" type="bicycle_bicycle"/>
    <trip id="bicycle71" depart="710.00" from="GorSq_1_1" to="GorSq_1_3" type="bicycle_bicycle"/>
    <trip id="bicycle72" depart="720.00" from="GorSq_2_1" to="HunSt_1_2" type="bicycle_bicycle"/>
    <trip id="bicycle73" depart="730.00" from="GorSq_2_1" to="HunSt_1_2" type="bicycle_bicycle"/>
    <trip id="bicycle74" depart="740.00" from="CheMe_1_1" to="HunSt_1_2" type="bicycle_bicycle"/>
    <trip id="bicycle75" depart="750.00" from="GorSq_1_1" to="GorSq_2_3" type="bicycle_bicycle"/>
    <trip id="bicycle76" depart="760.00" from="MalSt_2_1" to="GowSt_2_2" type="bicycle_bicycle"/>
    <trip id="bicycle77" depart="770.00" from="HunSt_2_1" to="GowSt_1_2" type="bicycle_bicycle"/>
    <trip id="bicycle78" depart="780.00" from="HunSt_2_1" to="GowSt_1_2" type="bicycle_bicycle"/>
    <trip id="bicycle79" depart="790.00" from="GowSt_2_1" to="GowSt_2_2" type="bicycle_bicycle"/>
    <trip id="bicycle80" depart="800.00" from="TorPl_1_1" to="MalSt_1_1" type="bicycle_bicycle"/>
    <trip id="bicycle81" depart="810.00" from="HunSt_1_1" to="MalSt_1_1" type="bicycle_bicycle"/>
    <trip id="bicycle82" depart="820.00" from="HunSt_2_1" to="MalSt_1_1" type="bicycle_bicycle"/>
    <trip id="bicycle83" depart="830.00" from="HunSt_1_1" to="HunSt_1_2" type="bicycle_bicycle"/>
    <trip id="bicycle84" depart="840.00" from="GorSq_2_1" to="TorPl_2_4" type="bicycle_bicycle"/>
    <trip id="bicycle85" depart="850.00" from="HunSt_2_1" to="MalSt_1_1" type="bicycle_bicycle"/>
    <trip id="bicycle86" depart="860.00" from="HunSt_2_1" to="GorSq_1_3" type="bicycle_bicycle"/>
    <trip id="bicycle87" depart="870.00" from="GorSq_1_1" to="TorPl_2_4" type="bicycle_bicycle"/>
    <trip id="bicycle88" depart="880.00" from="HunSt_2_1" to="TorPl_2_4" type="bicycle_bicycle"/>
    <trip id="bicycle89" depart="890.00" from="RidGa_2_1" to="GorSq_2_3" type="bicycle_bicycle"/>
    <trip id="bicycle90" depart="900.00" from="TorPl_1_1" to="HunSt_1_2" type="bicycle_bicycle"/>
    <trip id="bicycle91" depart="910.00" from="MalSt_2_1" to="GowSt_2_2" type="bicycle_bicycle"/>
    <trip id="bicycle92" depart="920.00" from="GorSq_2_1" to="GowSt_2_2" type="bicycle_bicycle"/>
    <trip id="bicycle93" depart="930.00" from="GowSt_2_1" to="GowSt_1_2" type="bicycle_bicycle"/>
    <trip id="bicycle94" depart="940.00" from="GowSt_1_1" to="GowSt_2_2" type="bicycle_bicycle"/>
    <trip id="bicycle95" depart="950.00" from="GorSq_2_1" to="GorSq_1_3" type="bicycle_bicycle"/>
    <trip id="bicycle96" depart="960.00" from="RidGa_2_1" to="GowSt_1_2" type="bicycle_bicycle"/>
    <trip id="bicycle97" depart="970.00" from="GowSt_1_1" to="MalSt_1_1" type="bicycle_bicycle"/>
    <trip id="bicycle98" depart="980.00" from="HunSt_2_1" to="GowSt_2_2" type="bicycle_bicycle"/>
    <trip id="bicycle99" depart="990.00" from="GowSt_1_1" to="MalSt_1_1" type="bicycle_bicycle"/>
</routes>
