<?xml version="1.0" encoding="UTF-8"?>

<!-- generated on 2025-11-04 21:02:47.901780 by randomTrips.py v1_24_0+0000-b72eb3fabc8
<configuration>
    <net-file value="../networks/demo/main.net.xml"/>
    <output-trip-file value="../routes/demo/bicycle.trips.xml"/>
    <route-file value="../routes/demo/bicycle.rou.xml"/>
    <prefix value="bicycle"/>
    <vehicle-class value="bicycle"/>
    <fringe-factor value="max"/>
    <period value="10.0"/>
    <poisson value="True"/>
</configuration>
-->

<routes xmlns:xsi="http://www.w3.org/2001/XMLSchema-instance" xsi:noNamespaceSchemaLocation="http://sumo.dlr.de/xsd/routes_file.xsd">
    <vType id="bicycle_bicycle" vClass="bicycle"/>
    <trip id="bicycle0" depart="0.00" from="HunSt_2_1" to="GorSq_1_3" type="bicycle_bicycle"/>
    <trip id="bicycle1" depart="10.00" from="GorSq_2_1" to="GorSq_2_3" type="bicycle_bicycle"/>
    <trip id="bicycle2" depart="20.00" from="MalSt_2_1" to="HunSt_1_2" type="bicycle_bicycle"/>
    <trip id="bicycle3" depart="30.00" from="RidGa_2_1" to="GorSq_1_3" type="bicycle_bicycle"/>
    <trip id="bicycle4" depart="40.00" from="GowSt_2_1" to="GorSq_1_3" type="bicycle_bicycle"/>
    <trip id="bicycle5" depart="50.00" from="GorSq_2_1" to="GowSt_2_2" type="bicycle_bicycle"/>
    <trip id="bicycle6" depart="60.00" from="CheMe_1_1" to="GorSq_2_3" type="bicycle_bicycle"/>
    <trip id="bicycle7" depart="70.00" from="HunSt_2_1" to="GowSt_2_2" type="bicycle_bicycle"/>
    <trip id="bicycle8" depart="80.00" from="GorSq_2_1" to="HunSt_1_2" type="bicycle_bicycle"/>
    <trip id="bicycle9" depart="90.00" from="RidGa_2_1" to="GorSq_1_3" type="bicycle_bicycle"/>
    <trip id="bicycle10" depart="100.00" from="RidGa_2_1" to="HunSt_1_2" type="bicycle_bicycle"/>
    <trip id="bicycle11" depart="110.00" from="GowSt_1_1" to="GorSq_2_3" type="bicycle_bicycle"/>
    <trip id="bicycle12" depart="120.00" from="TorPl_1_1" to="GowSt_1_2" type="bicycle_bicycle"/>
    <trip id="bicycle13" depart="130.00" from="CheMe_1_1" to="GorSq_1_3" type="bicycle_bicycle"/>
    <trip id="bicycle14" depart="140.00" from="RidGa_2_1" to="HunSt_1_2" type="bicycle_bicycle"/>
    <trip id="bicycle15" depart="150.00" from="RidGa_2_1" to="MalSt_1_1" type="bicycle_bicycle"/>
    <trip id="bicycle16" depart="160.00" from="HunSt_1_1" to="TorPl_2_4" type="bicycle_bicycle"/>
    <trip id="bicycle17" depart="170.00" from="GowSt_1_1" to="GowSt_2_2" type="bicycle_bicycle"/>
    <trip id="bicycle18" depart="180.00" from="RidGa_2_1" to="HunSt_1_2" type="bicycle_bicycle"/>
    <trip id="bicycle19" depart="190.00" from="RidGa_2_1" to="HunSt_1_2" type="bicycle_bicycle"/>
    <trip id="bicycle20" depart="200.00" from="MalSt_2_1" to="GorSq_1_3" type="bicycle_bicycle"/>
    <trip id="bicycle21" depart="210.00" from="GorSq_2_1" to="GowSt_1_2" type="bicycle_bicycle"/>
    <trip id="bicycle22" depart="220.00" from="CheMe_1_1" to="GorSq_2_3" type="bicycle_bicycle"/>
    <trip id="bicycle23" depart="230.00" from="GorSq_1_1" to="GorSq_2_3" type="bicycle_bicycle"/>
    <trip id="bicycle24" depart="240.00" from="HunSt_2_1" to="GowSt_1_2" type="bicycle_bicycle"/>
    <trip id="bicycle25" depart="250.00" from="GowSt_1_1" to="GorSq_2_3" type="bicycle_bicycle"/>
    <trip id="bicycle26" depart="260.00" from="GorSq_2_1" to="TorPl_2_4" type="bicycle_bicycle"/>
    <trip id="bicycle27" depart="270.00" from="HunSt_2_1" to="HunSt_1_2" type="bicycle_bicycle"/>
    <trip id="bicycle28" depart="280.00" from="GorSq_1_1" to="MalSt_1_1" type="bicycle_bicycle"/>
    <trip id="bicycle29" depart="290.00" from="GorSq_1_1" to="GowSt_1_2" type="bicycle_bicycle"/>
    <trip id="bicycle30" depart="300.00" from="TorPl_1_1" to="HunSt_1_2" type="bicycle_bicycle"/>
    <trip id="bicycle31" depart="310.00" from="HunSt_1_1" to="HunSt_1_2" type="bicycle_bicycle"/>
    <trip id="bicycle32" depart="320.00" from="RidGa_2_1" to="MalSt_1_1" type="bicycle_bicycle"/>
    <trip id="bicycle33" depart="330.00" from="GorSq_2_1" to="GorSq_1_3" type="bicycle_bicycle"/>
    <trip id="bicycle34" depart="340.00" from="GowSt_1_1" to="GorSq_2_3" type="bicycle_bicycle"/>
    <trip id="bicycle35" depart="350.00" from="GorSq_2_1" to="TorPl_2_4" type="bicycle_bicycle"/>
    <trip id="bicycle36" depart="360.00" from="RidGa_2_1" to="GowSt_1_2" type="bicycle_bicycle"/>
    <trip id="bicycle37" depart="370.00" from="HunSt_2_1" to="GowSt_1_2" type="bicycle_bicycle"/>
    <trip id="bicycle38" depart="380.00" from="TorPl_1_1" to="GowSt_2_2" type="bicycle_bicycle"/>
    <trip id="bicycle39" depart="390.00" from="GorSq_2_1" to="GorSq_2_3" type="bicycle_bicycle"/>
    <trip id="bicycle40" depart="400.00" from="HunSt_1_1" to="GorSq_2_3" type="bicycle_bicycle"/>
    <trip id="bicycle41" depart="410.00" from="HunSt_1_1" to="TorPl_2_4" type="bicycle_bicycle"/>
    <trip id="bicycle42" depart="420.00" from="GowSt_1_1" to="GorSq_2_3" type="bicycle_bicycle"/>
    <trip id="bicycle43" depart="430.00" from="TorPl_1_1" to="GowSt_2_2" type="bicycle_bicycle"/>
    <trip id="bicycle44" depart="440.00" from="CheMe_1_1" to="GorSq_1_3" type="bicycle_bicycle"/>
    <trip id="bicycle45" depart="450.00" from="GorSq_1_1" to="HunSt_1_2" type="bicycle_bicycle"/>
    <trip id="bicycle46" depart="460.00" from="MalSt_2_1" to="GowSt_1_2" type="bicycle_bicycle"/>
    <trip id="bicycle47" depart="470.00" from="CheMe_1_1" to="GowSt_1_2" type="bicycle_bicycle"/>
    <trip id="bicycle48" depart="480.00" from="TorPl_1_1" to="GowSt_2_2" type="bicycle_bicycle"/>
    <trip id="bicycle49" depart="490.00" from="TorPl_1_1" to="TorPl_2_4" type="bicycle_bicycle"/>
    <trip id="bicycle50" depart="500.00" from="CheMe_1_1" to="MalSt_1_1" type="bicycle_bicycle"/>
    <trip id="bicycle51" depart="510.00" from="HunSt_2_1" to="GowSt_2_2" type="bicycle_bicycle"/>
    <trip id="bicycle52" depart="520.00" from="GorSq_2_1" to="HunSt_1_2" type="bicycle_bicycle"/>
    <trip id="bicycle53" depart="530.00" from="GorSq_1_1" to="GowSt_2_2" type="bicycle_bicycle"/>
    <trip id="bicycle54" depart="540.00" from="GowSt_2_1" to="TorPl_2_4" type="bicycle_bicycle"/>
    <trip id="bicycle55" depart="550.00" from="RidGa_2_1" to="GorSq_2_3" type="bicycle_bicycle"/>
    <trip id="bicycle56" depart="560.00" from="HunSt_1_1" to="GorSq_2_3" type="bicycle_bicycle"/>
    <trip id="bicycle57" depart="570.00" from="TorPl_1_1" to="TorPl_2_4" type="bicycle_bicycle"/>
    <trip id="bicycle58" depart="580.00" from="GorSq_2_1" to="HunSt_1_2" type="bicycle_bicycle"/>
    <trip id="bicycle59" depart="590.00" from="HunSt_2_1" to="GorSq_2_3" type="bicycle_bicycle"/>
    <trip id="bicycle60" depart="600.00" from="MalSt_2_1" to="GowSt_2_2" type="bicycle_bicycle"/>
    <trip id="bicycle61" depart="610.00" from="MalSt_2_1" to="GowSt_2_2" type="bicycle_bicycle"/>
    <trip id="bicycle62" depart="620.00" from="CheMe_1_1" to="GowSt_1_2" type="bicycle_bicycle"/>
    <trip id="bicycle63" depart="630.00" from="CheMe_1_1" to="TorPl_2_4" type="bicycle_bicycle"/>
    <trip id="bicycle64" depart="640.00" from="RidGa_2_1" to="MalSt_1_1" type="bicycle_bicycle"/>
    <trip id="bicycle65" depart="650.00" from="GowSt_1_1" to="GorSq_1_3" type="bicycle_bicycle"/>
    <trip id="bicycle66" depart="660.00" from="RidGa_2_1" to="TorPl_2_4" type="bicycle_bicycle"/>
    <trip id="bicycle67" depart="670.00" from="CheMe_1_1" to="GowSt_2_2" type="bicycle_bicycle"/>
    <trip id="bicycle68" depart="680.00" from="CheMe_1_1" to="MalSt_1_1" type="bicycle_bicycle"/>
    <trip id="bicycle69" depart="690.00" from="MalSt_2_1" to="GorSq_1_3" type="bicycle_bicycle"/>
    <trip id="bicycle70" depart="700.00" from="GowSt_2_1" to="GowSt_2_2" type="bicycle_bicycle"/>
    <trip id="bicycle71" depart="710.00" from="GorSq_2_1" to="TorPl_2_4" type="bicycle_bicycle"/>
    <trip id="bicycle72" depart="720.00" from="GowSt_2_1" to="GorSq_2_3" type="bicycle_bicycle"/>
    <trip id="bicycle73" depart="730.00" from="HunSt_1_1" to="MalSt_1_1" type="bicycle_bicycle"/>
    <trip id="bicycle74" depart="740.00" from="GorSq_2_1" to="GowSt_1_2" type="bicycle_bicycle"/>
    <trip id="bicycle75" depart="750.00" from="TorPl_1_1" to="HunSt_1_2" type="bicycle_bicycle"/>
    <trip id="bicycle76" depart="760.00" from="GowSt_2_1" to="GowSt_2_2" type="bicycle_bicycle"/>
    <trip id="bicycle77" depart="770.00" from="GorSq_1_1" to="GorSq_2_3" type="bicycle_bicycle"/>
    <trip id="bicycle78" depart="780.00" from="GowSt_1_1" to="HunSt_1_2" type="bicycle_bicycle"/>
    <trip id="bicycle79" depart="790.00" from="GorSq_2_1" to="GorSq_2_3" type="bicycle_bicycle"/>
    <trip id="bicycle80" depart="800.00" from="CheMe_1_1" to="HunSt_1_2" type="bicycle_bicycle"/>
    <trip id="bicycle81" depart="810.00" from="GorSq_2_1" to="TorPl_2_4" type="bicycle_bicycle"/>
    <trip id="bicycle82" depart="820.00" from="RidGa_2_1" to="GorSq_1_3" type="bicycle_bicycle"/>
    <trip id="bicycle83" depart="830.00" from="GorSq_2_1" to="HunSt_1_2" type="bicycle_bicycle"/>
    <trip id="bicycle84" depart="840.00" from="GorSq_2_1" to="GorSq_1_3" type="bicycle_bicycle"/>
    <trip id="bicycle85" depart="850.00" from="TorPl_1_1" to="GowSt_2_2" type="bicycle_bicycle"/>
    <trip id="bicycle86" depart="860.00" from="GowSt_2_1" to="MalSt_1_1" type="bicycle_bicycle"/>
    <trip id="bicycle87" depart="870.00" from="RidGa_2_1" to="GorSq_2_3" type="bicycle_bicycle"/>
    <trip id="bicycle88" depart="880.00" from="CheMe_1_1" to="GowSt_2_2" type="bicycle_bicycle"/>
    <trip id="bicycle89" depart="890.00" from="GowSt_2_1" to="GowSt_2_2" type="bicycle_bicycle"/>
    <trip id="bicycle90" depart="900.00" from="MalSt_2_1" to="HunSt_1_2" type="bicycle_bicycle"/>
    <trip id="bicycle91" depart="910.00" from="TorPl_1_1" to="GorSq_1_3" type="bicycle_bicycle"/>
    <trip id="bicycle92" depart="920.00" from="GowSt_2_1" to="GowSt_1_2" type="bicycle_bicycle"/>
    <trip id="bicycle93" depart="930.00" from="RidGa_2_1" to="GorSq_2_3" type="bicycle_bicycle"/>
    <trip id="bicycle94" depart="940.00" from="GorSq_1_1" to="GowSt_2_2" type="bicycle_bicycle"/>
    <trip id="bicycle95" depart="950.00" from="GowSt_2_1" to="GorSq_2_3" type="bicycle_bicycle"/>
    <trip id="bicycle96" depart="960.00" from="GorSq_2_1" to="TorPl_2_4" type="bicycle_bicycle"/>
    <trip id="bicycle97" depart="970.00" from="GowSt_2_1" to="TorPl_2_4" type="bicycle_bicycle"/>
    <trip id="bicycle98" depart="980.00" from="HunSt_1_1" to="GorSq_1_3" type="bicycle_bicycle"/>
    <trip id="bicycle99" depart="990.00" from="TorPl_1_1" to="MalSt_1_1" type="bicycle_bicycle"/>
    <trip id="bicycle100" depart="1000.00" from="TorPl_1_1" to="TorPl_2_4" type="bicycle_bicycle"/>
    <trip id="bicycle101" depart="1010.00" from="RidGa_2_1" to="GorSq_2_3" type="bicycle_bicycle"/>
    <trip id="bicycle102" depart="1020.00" from="GowSt_2_1" to="GorSq_2_3" type="bicycle_bicycle"/>
    <trip id="bicycle103" depart="1030.00" from="GowSt_2_1" to="GorSq_1_3" type="bicycle_bicycle"/>
    <trip id="bicycle104" depart="1040.00" from="GowSt_1_1" to="TorPl_2_4" type="bicycle_bicycle"/>
    <trip id="bicycle105" depart="1050.00" from="GorSq_2_1" to="MalSt_1_1" type="bicycle_bicycle"/>
    <trip id="bicycle106" depart="1060.00" from="GowSt_2_1" to="GowSt_1_2" type="bicycle_bicycle"/>
    <trip id="bicycle107" depart="1070.00" from="TorPl_1_1" to="TorPl_2_4" type="bicycle_bicycle"/>
    <trip id="bicycle108" depart="1080.00" from="HunSt_1_1" to="MalSt_1_1" type="bicycle_bicycle"/>
    <trip id="bicycle109" depart="1090.00" from="GorSq_1_1" to="GowSt_1_2" type="bicycle_bicycle"/>
    <trip id="bicycle110" depart="1100.00" from="TorPl_1_1" to="HunSt_1_2" type="bicycle_bicycle"/>
    <trip id="bicycle111" depart="1110.00" from="HunSt_1_1" to="MalSt_1_1" type="bicycle_bicycle"/>
    <trip id="bicycle112" depart="1120.00" from="CheMe_1_1" to="HunSt_1_2" type="bicycle_bicycle"/>
    <trip id="bicycle113" depart="1130.00" from="HunSt_1_1" to="MalSt_1_1" type="bicycle_bicycle"/>
    <trip id="bicycle114" depart="1140.00" from="GorSq_1_1" to="TorPl_2_4" type="bicycle_bicycle"/>
    <trip id="bicycle115" depart="1150.00" from="CheMe_1_1" to="GorSq_2_3" type="bicycle_bicycle"/>
    <trip id="bicycle116" depart="1160.00" from="HunSt_1_1" to="HunSt_1_2" type="bicycle_bicycle"/>
    <trip id="bicycle117" depart="1170.00" from="GorSq_2_1" to="GorSq_1_3" type="bicycle_bicycle"/>
    <trip id="bicycle118" depart="1180.00" from="RidGa_2_1" to="GorSq_2_3" type="bicycle_bicycle"/>
    <trip id="bicycle119" depart="1190.00" from="HunSt_1_1" to="HunSt_1_2" type="bicycle_bicycle"/>
    <trip id="bicycle120" depart="1200.00" from="GowSt_2_1" to="HunSt_1_2" type="bicycle_bicycle"/>
    <trip id="bicycle121" depart="1210.00" from="HunSt_1_1" to="TorPl_2_4" type="bicycle_bicycle"/>
    <trip id="bicycle122" depart="1220.00" from="GorSq_2_1" to="MalSt_1_1" type="bicycle_bicycle"/>
    <trip id="bicycle123" depart="1230.00" from="GorSq_2_1" to="GowSt_1_2" type="bicycle_bicycle"/>
    <trip id="bicycle124" depart="1240.00" from="HunSt_2_1" to="GowSt_1_2" type="bicycle_bicycle"/>
    <trip id="bicycle125" depart="1250.00" from="GowSt_1_1" to="MalSt_1_1" type="bicycle_bicycle"/>
    <trip id="bicycle126" depart="1260.00" from="CheMe_1_1" to="GowSt_2_2" type="bicycle_bicycle"/>
    <trip id="bicycle127" depart="1270.00" from="TorPl_1_1" to="TorPl_2_4" type="bicycle_bicycle"/>
    <trip id="bicycle128" depart="1280.00" from="CheMe_1_1" to="GorSq_2_3" type="bicycle_bicycle"/>
    <trip id="bicycle129" depart="1290.00" from="GorSq_2_1" to="TorPl_2_4" type="bicycle_bicycle"/>
    <trip id="bicycle130" depart="1300.00" from="RidGa_2_1" to="TorPl_2_4" type="bicycle_bicycle"/>
    <trip id="bicycle131" depart="1310.00" from="GowSt_1_1" to="GorSq_2_3" type="bicycle_bicycle"/>
    <trip id="bicycle132" depart="1320.00" from="RidGa_2_1" to="HunSt_1_2" type="bicycle_bicycle"/>
    <trip id="bicycle133" depart="1330.00" from="HunSt_2_1" to="TorPl_2_4" type="bicycle_bicycle"/>
    <trip id="bicycle134" depart="1340.00" from="HunSt_2_1" to="GorSq_1_3" type="bicycle_bicycle"/>
    <trip id="bicycle135" depart="1350.00" from="RidGa_2_1" to="GowSt_1_2" type="bicycle_bicycle"/>
    <trip id="bicycle136" depart="1360.00" from="HunSt_2_1" to="TorPl_2_4" type="bicycle_bicycle"/>
    <trip id="bicycle137" depart="1370.00" from="GorSq_1_1" to="GorSq_1_3" type="bicycle_bicycle"/>
    <trip id="bicycle138" depart="1380.00" from="GorSq_1_1" to="GowSt_2_2" type="bicycle_bicycle"/>
    <trip id="bicycle139" depart="1390.00" from="GorSq_2_1" to="HunSt_1_2" type="bicycle_bicycle"/>
    <trip id="bicycle140" depart="1400.00" from="MalSt_2_1" to="GorSq_2_3" type="bicycle_bicycle"/>
    <trip id="bicycle141" depart="1410.00" from="HunSt_2_1" to="GorSq_2_3" type="bicycle_bicycle"/>
    <trip id="bicycle142" depart="1420.00" from="GowSt_2_1" to="TorPl_2_4" type="bicycle_bicycle"/>
    <trip id="bicycle143" depart="1430.00" from="RidGa_2_1" to="GorSq_1_3" type="bicycle_bicycle"/>
    <trip id="bicycle144" depart="1440.00" from="GowSt_2_1" to="GorSq_2_3" type="bicycle_bicycle"/>
    <trip id="bicycle145" depart="1450.00" from="CheMe_1_1" to="MalSt_1_1" type="bicycle_bicycle"/>
    <trip id="bicycle146" depart="1460.00" from="HunSt_2_1" to="GorSq_2_3" type="bicycle_bicycle"/>
    <trip id="bicycle147" depart="1470.00" from="MalSt_2_1" to="GowSt_2_2" type="bicycle_bicycle"/>
    <trip id="bicycle148" depart="1480.00" from="GowSt_2_1" to="GorSq_1_3" type="bicycle_bicycle"/>
    <trip id="bicycle149" depart="1490.00" from="CheMe_1_1" to="TorPl_2_4" type="bicycle_bicycle"/>
    <trip id="bicycle150" depart="1500.00" from="TorPl_1_1" to="GowSt_2_2" type="bicycle_bicycle"/>
    <trip id="bicycle151" depart="1510.00" from="RidGa_2_1" to="HunSt_1_2" type="bicycle_bicycle"/>
    <trip id="bicycle152" depart="1520.00" from="GorSq_1_1" to="GorSq_1_3" type="bicycle_bicycle"/>
    <trip id="bicycle153" depart="1530.00" from="GowSt_1_1" to="TorPl_2_4" type="bicycle_bicycle"/>
    <trip id="bicycle154" depart="1540.00" from="MalSt_2_1" to="TorPl_2_4" type="bicycle_bicycle"/>
    <trip id="bicycle155" depart="1550.00" from="RidGa_2_1" to="GorSq_2_3" type="bicycle_bicycle"/>
    <trip id="bicycle156" depart="1560.00" from="GorSq_2_1" to="GorSq_1_3" type="bicycle_bicycle"/>
    <trip id="bicycle157" depart="1570.00" from="MalSt_2_1" to="TorPl_2_4" type="bicycle_bicycle"/>
    <trip id="bicycle158" depart="1580.00" from="GowSt_2_1" to="HunSt_1_2" type="bicycle_bicycle"/>
    <trip id="bicycle159" depart="1590.00" from="GorSq_1_1" to="TorPl_2_4" type="bicycle_bicycle"/>
    <trip id="bicycle160" depart="1600.00" from="RidGa_2_1" to="TorPl_2_4" type="bicycle_bicycle"/>
    <trip id="bicycle161" depart="1610.00" from="RidGa_2_1" to="TorPl_2_4" type="bicycle_bicycle"/>
    <trip id="bicycle162" depart="1620.00" from="CheMe_1_1" to="MalSt_1_1" type="bicycle_bicycle"/>
    <trip id="bicycle163" depart="1630.00" from="GowSt_1_1" to="TorPl_2_4" type="bicycle_bicycle"/>
    <trip id="bicycle164" depart="1640.00" from="RidGa_2_1" to="TorPl_2_4" type="bicycle_bicycle"/>
    <trip id="bicycle165" depart="1650.00" from="RidGa_2_1" to="GorSq_2_3" type="bicycle_bicycle"/>
    <trip id="bicycle166" depart="1660.00" from="MalSt_2_1" to="GorSq_1_3" type="bicycle_bicycle"/>
    <trip id="bicycle167" depart="1670.00" from="RidGa_2_1" to="TorPl_2_4" type="bicycle_bicycle"/>
    <trip id="bicycle168" depart="1680.00" from="GorSq_2_1" to="MalSt_1_1" type="bicycle_bicycle"/>
    <trip id="bicycle169" depart="1690.00" from="GowSt_2_1" to="GowSt_1_2" type="bicycle_bicycle"/>
    <trip id="bicycle170" depart="1700.00" from="MalSt_2_1" to="GorSq_2_3" type="bicycle_bicycle"/>
    <trip id="bicycle171" depart="1710.00" from="CheMe_1_1" to="GorSq_2_3" type="bicycle_bicycle"/>
    <trip id="bicycle172" depart="1720.00" from="GowSt_1_1" to="TorPl_2_4" type="bicycle_bicycle"/>
    <trip id="bicycle173" depart="1730.00" from="TorPl_1_1" to="GorSq_2_3" type="bicycle_bicycle"/>
    <trip id="bicycle174" depart="1740.00" from="HunSt_2_1" to="GowSt_1_2" type="bicycle_bicycle"/>
    <trip id="bicycle175" depart="1750.00" from="TorPl_1_1" to="GowSt_2_2" type="bicycle_bicycle"/>
    <trip id="bicycle176" depart="1760.00" from="TorPl_1_1" to="GorSq_1_3" type="bicycle_bicycle"/>
    <trip id="bicycle177" depart="1770.00" from="TorPl_1_1" to="GorSq_2_3" type="bicycle_bicycle"/>
    <trip id="bicycle178" depart="1780.00" from="TorPl_1_1" to="GorSq_2_3" type="bicycle_bicycle"/>
    <trip id="bicycle179" depart="1790.00" from="GorSq_1_1" to="GowSt_2_2" type="bicycle_bicycle"/>
    <trip id="bicycle180" depart="1800.00" from="MalSt_2_1" to="GowSt_1_2" type="bicycle_bicycle"/>
    <trip id="bicycle181" depart="1810.00" from="HunSt_2_1" to="GowSt_2_2" type="bicycle_bicycle"/>
    <trip id="bicycle182" depart="1820.00" from="GowSt_1_1" to="HunSt_1_2" type="bicycle_bicycle"/>
    <trip id="bicycle183" depart="1830.00" from="GorSq_2_1" to="HunSt_1_2" type="bicycle_bicycle"/>
    <trip id="bicycle184" depart="1840.00" from="CheMe_1_1" to="TorPl_2_4" type="bicycle_bicycle"/>
    <trip id="bicycle185" depart="1850.00" from="HunSt_1_1" to="MalSt_1_1" type="bicycle_bicycle"/>
    <trip id="bicycle186" depart="1860.00" from="MalSt_2_1" to="HunSt_1_2" type="bicycle_bicycle"/>
    <trip id="bicycle187" depart="1870.00" from="GowSt_1_1" to="GorSq_1_3" type="bicycle_bicycle"/>
    <trip id="bicycle188" depart="1880.00" from="HunSt_2_1" to="GowSt_1_2" type="bicycle_bicycle"/>
    <trip id="bicycle189" depart="1890.00" from="GowSt_1_1" to="MalSt_1_1" type="bicycle_bicycle"/>
    <trip id="bicycle190" depart="1900.00" from="MalSt_2_1" to="GowSt_1_2" type="bicycle_bicycle"/>
    <trip id="bicycle191" depart="1910.00" from="GowSt_1_1" to="GowSt_1_2" type="bicycle_bicycle"/>
    <trip id="bicycle192" depart="1920.00" from="GowSt_2_1" to="GowSt_1_2" type="bicycle_bicycle"/>
    <trip id="bicycle193" depart="1930.00" from="GorSq_1_1" to="GowSt_1_2" type="bicycle_bicycle"/>
    <trip id="bicycle194" depart="1940.00" from="TorPl_1_1" to="HunSt_1_2" type="bicycle_bicycle"/>
    <trip id="bicycle195" depart="1950.00" from="TorPl_1_1" to="HunSt_1_2" type="bicycle_bicycle"/>
    <trip id="bicycle196" depart="1960.00" from="GowSt_1_1" to="GowSt_2_2" type="bicycle_bicycle"/>
    <trip id="bicycle197" depart="1970.00" from="CheMe_1_1" to="GowSt_1_2" type="bicycle_bicycle"/>
    <trip id="bicycle198" depart="1980.00" from="GowSt_2_1" to="HunSt_1_2" type="bicycle_bicycle"/>
    <trip id="bicycle199" depart="1990.00" from="HunSt_2_1" to="GowSt_2_2" type="bicycle_bicycle"/>
    <trip id="bicycle200" depart="2000.00" from="GowSt_2_1" to="GorSq_2_3" type="bicycle_bicycle"/>
    <trip id="bicycle201" depart="2010.00" from="GowSt_2_1" to="TorPl_2_4" type="bicycle_bicycle"/>
    <trip id="bicycle202" depart="2020.00" from="MalSt_2_1" to="GorSq_2_3" type="bicycle_bicycle"/>
    <trip id="bicycle203" depart="2030.00" from="CheMe_1_1" to="GowSt_2_2" type="bicycle_bicycle"/>
    <trip id="bicycle204" depart="2040.00" from="HunSt_2_1" to="GowSt_1_2" type="bicycle_bicycle"/>
    <trip id="bicycle205" depart="2050.00" from="RidGa_2_1" to="MalSt_1_1" type="bicycle_bicycle"/>
    <trip id="bicycle206" depart="2060.00" from="HunSt_2_1" to="GorSq_2_3" type="bicycle_bicycle"/>
    <trip id="bicycle207" depart="2070.00" from="GorSq_1_1" to="GorSq_1_3" type="bicycle_bicycle"/>
    <trip id="bicycle208" depart="2080.00" from="GorSq_2_1" to="GowSt_2_2" type="bicycle_bicycle"/>
    <trip id="bicycle209" depart="2090.00" from="RidGa_2_1" to="GorSq_1_3" type="bicycle_bicycle"/>
    <trip id="bicycle210" depart="2100.00" from="GowSt_2_1" to="HunSt_1_2" type="bicycle_bicycle"/>
    <trip id="bicycle211" depart="2110.00" from="GorSq_1_1" to="HunSt_1_2" type="bicycle_bicycle"/>
    <trip id="bicycle212" depart="2120.00" from="GowSt_2_1" to="GorSq_2_3" type="bicycle_bicycle"/>
    <trip id="bicycle213" depart="2130.00" from="HunSt_2_1" to="GorSq_1_3" type="bicycle_bicycle"/>
    <trip id="bicycle214" depart="2140.00" from="MalSt_2_1" to="MalSt_1_1" type="bicycle_bicycle"/>
    <trip id="bicycle215" depart="2150.00" from="GorSq_1_1" to="GowSt_1_2" type="bicycle_bicycle"/>
    <trip id="bicycle216" depart="2160.00" from="GorSq_1_1" to="TorPl_2_4" type="bicycle_bicycle"/>
    <trip id="bicycle217" depart="2170.00" from="HunSt_1_1" to="GorSq_1_3" type="bicycle_bicycle"/>
    <trip id="bicycle218" depart="2180.00" from="GorSq_2_1" to="MalSt_1_1" type="bicycle_bicycle"/>
    <trip id="bicycle219" depart="2190.00" from="GowSt_2_1" to="MalSt_1_1" type="bicycle_bicycle"/>
    <trip id="bicycle220" depart="2200.00" from="HunSt_2_1" to="TorPl_2_4" type="bicycle_bicycle"/>
    <trip id="bicycle221" depart="2210.00" from="HunSt_1_1" to="TorPl_2_4" type="bicycle_bicycle"/>
    <trip id="bicycle222" depart="2220.00" from="RidGa_2_1" to="HunSt_1_2" type="bicycle_bicycle"/>
    <trip id="bicycle223" depart="2230.00" from="MalSt_2_1" to="GowSt_2_2" type="bicycle_bicycle"/>
    <trip id="bicycle224" depart="2240.00" from="RidGa_2_1" to="GowSt_2_2" type="bicycle_bicycle"/>
    <trip id="bicycle225" depart="2250.00" from="RidGa_2_1" to="MalSt_1_1" type="bicycle_bicycle"/>
    <trip id="bicycle226" depart="2260.00" from="GowSt_2_1" to="GorSq_2_3" type="bicycle_bicycle"/>
    <trip id="bicycle227" depart="2270.00" from="GorSq_2_1" to="HunSt_1_2" type="bicycle_bicycle"/>
    <trip id="bicycle228" depart="2280.00" from="MalSt_2_1" to="GowSt_2_2" type="bicycle_bicycle"/>
    <trip id="bicycle229" depart="2290.00" from="HunSt_2_1" to="GorSq_2_3" type="bicycle_bicycle"/>
    <trip id="bicycle230" depart="2300.00" from="CheMe_1_1" to="GowSt_1_2" type="bicycle_bicycle"/>
    <trip id="bicycle231" depart="2310.00" from="GorSq_2_1" to="GowSt_1_2" type="bicycle_bicycle"/>
    <trip id="bicycle232" depart="2320.00" from="HunSt_1_1" to="GorSq_1_3" type="bicycle_bicycle"/>
    <trip id="bicycle233" depart="2330.00" from="GorSq_2_1" to="HunSt_1_2" type="bicycle_bicycle"/>
    <trip id="bicycle234" depart="2340.00" from="MalSt_2_1" to="GorSq_1_3" type="bicycle_bicycle"/>
    <trip id="bicycle235" depart="2350.00" from="GowSt_2_1" to="GowSt_2_2" type="bicycle_bicycle"/>
    <trip id="bicycle236" depart="2360.00" from="GowSt_2_1" to="GorSq_2_3" type="bicycle_bicycle"/>
    <trip id="bicycle237" depart="2370.00" from="GowSt_2_1" to="TorPl_2_4" type="bicycle_bicycle"/>
    <trip id="bicycle238" depart="2380.00" from="HunSt_1_1" to="HunSt_1_2" type="bicycle_bicycle"/>
    <trip id="bicycle239" depart="2390.00" from="RidGa_2_1" to="MalSt_1_1" type="bicycle_bicycle"/>
    <trip id="bicycle240" depart="2400.00" from="GowSt_1_1" to="GorSq_1_3" type="bicycle_bicycle"/>
    <trip id="bicycle241" depart="2410.00" from="GowSt_1_1" to="MalSt_1_1" type="bicycle_bicycle"/>
    <trip id="bicycle242" depart="2420.00" from="RidGa_2_1" to="TorPl_2_4" type="bicycle_bicycle"/>
    <trip id="bicycle243" depart="2430.00" from="GowSt_2_1" to="MalSt_1_1" type="bicycle_bicycle"/>
    <trip id="bicycle244" depart="2440.00" from="HunSt_1_1" to="HunSt_1_2" type="bicycle_bicycle"/>
    <trip id="bicycle245" depart="2450.00" from="GorSq_2_1" to="GorSq_2_3" type="bicycle_bicycle"/>
    <trip id="bicycle246" depart="2460.00" from="GowSt_2_1" to="GorSq_1_3" type="bicycle_bicycle"/>
    <trip id="bicycle247" depart="2470.00" from="GowSt_1_1" to="HunSt_1_2" type="bicycle_bicycle"/>
    <trip id="bicycle248" depart="2480.00" from="GowSt_2_1" to="GorSq_2_3" type="bicycle_bicycle"/>
    <trip id="bicycle249" depart="2490.00" from="GowSt_2_1" to="GorSq_1_3" type="bicycle_bicycle"/>
    <trip id="bicycle250" depart="2500.00" from="HunSt_2_1" to="GorSq_1_3" type="bicycle_bicycle"/>
    <trip id="bicycle251" depart="2510.00" from="GowSt_1_1" to="GowSt_2_2" type="bicycle_bicycle"/>
    <trip id="bicycle252" depart="2520.00" from="CheMe_1_1" to="HunSt_1_2" type="bicycle_bicycle"/>
    <trip id="bicycle253" depart="2530.00" from="GorSq_1_1" to="GowSt_2_2" type="bicycle_bicycle"/>
    <trip id="bicycle254" depart="2540.00" from="CheMe_1_1" to="GowSt_1_2" type="bicycle_bicycle"/>
    <trip id="bicycle255" depart="2550.00" from="GorSq_2_1" to="GowSt_1_2" type="bicycle_bicycle"/>
    <trip id="bicycle256" depart="2560.00" from="MalSt_2_1" to="GowSt_1_2" type="bicycle_bicycle"/>
    <trip id="bicycle257" depart="2570.00" from="MalSt_2_1" to="MalSt_1_1" type="bicycle_bicycle"/>
    <trip id="bicycle258" depart="2580.00" from="GorSq_2_1" to="GorSq_1_3" type="bicycle_bicycle"/>
    <trip id="bicycle259" depart="2590.00" from="CheMe_1_1" to="GowSt_2_2" type="bicycle_bicycle"/>
    <trip id="bicycle260" depart="2600.00" from="TorPl_1_1" to="GowSt_1_2" type="bicycle_bicycle"/>
    <trip id="bicycle261" depart="2610.00" from="HunSt_2_1" to="MalSt_1_1" type="bicycle_bicycle"/>
    <trip id="bicycle262" depart="2620.00" from="HunSt_2_1" to="MalSt_1_1" type="bicycle_bicycle"/>
    <trip id="bicycle263" depart="2630.00" from="TorPl_1_1" to="GorSq_2_3" type="bicycle_bicycle"/>
    <trip id="bicycle264" depart="2640.00" from="CheMe_1_1" to="GorSq_2_3" type="bicycle_bicycle"/>
    <trip id="bicycle265" depart="2650.00" from="GorSq_1_1" to="HunSt_1_2" type="bicycle_bicycle"/>
    <trip id="bicycle266" depart="2660.00" from="HunSt_1_1" to="GorSq_2_3" type="bicycle_bicycle"/>
    <trip id="bicycle267" depart="2670.00" from="HunSt_2_1" to="MalSt_1_1" type="bicycle_bicycle"/>
    <trip id="bicycle268" depart="2680.00" from="GorSq_1_1" to="HunSt_1_2" type="bicycle_bicycle"/>
    <trip id="bicycle269" depart="2690.00" from="MalSt_2_1" to="GorSq_1_3" type="bicycle_bicycle"/>
    <trip id="bicycle270" depart="2700.00" from="RidGa_2_1" to="TorPl_2_4" type="bicycle_bicycle"/>
    <trip id="bicycle271" depart="2710.00" from="GorSq_1_1" to="GorSq_1_3" type="bicycle_bicycle"/>
    <trip id="bicycle272" depart="2720.00" from="GowSt_1_1" to="HunSt_1_2" type="bicycle_bicycle"/>
    <trip id="bicycle273" depart="2730.00" from="TorPl_1_1" to="GowSt_1_2" type="bicycle_bicycle"/>
    <trip id="bicycle274" depart="2740.00" from="MalSt_2_1" to="GorSq_1_3" type="bicycle_bicycle"/>
    <trip id="bicycle275" depart="2750.00" from="HunSt_2_1" to="HunSt_1_2" type="bicycle_bicycle"/>
    <trip id="bicycle276" depart="2760.00" from="GorSq_1_1" to="MalSt_1_1" type="bicycle_bicycle"/>
    <trip id="bicycle277" depart="2770.00" from="RidGa_2_1" to="HunSt_1_2" type="bicycle_bicycle"/>
    <trip id="bicycle278" depart="2780.00" from="GorSq_1_1" to="TorPl_2_4" type="bicycle_bicycle"/>
    <trip id="bicycle279" depart="2790.00" from="MalSt_2_1" to="GowSt_1_2" type="bicycle_bicycle"/>
    <trip id="bicycle280" depart="2800.00" from="GowSt_2_1" to="GowSt_1_2" type="bicycle_bicycle"/>
    <trip id="bicycle281" depart="2810.00" from="HunSt_1_1" to="GowSt_1_2" type="bicycle_bicycle"/>
    <trip id="bicycle282" depart="2820.00" from="RidGa_2_1" to="MalSt_1_1" type="bicycle_bicycle"/>
    <trip id="bicycle283" depart="2830.00" from="GorSq_1_1" to="TorPl_2_4" type="bicycle_bicycle"/>
    <trip id="bicycle284" depart="2840.00" from="HunSt_2_1" to="MalSt_1_1" type="bicycle_bicycle"/>
    <trip id="bicycle285" depart="2850.00" from="MalSt_2_1" to="GowSt_2_2" type="bicycle_bicycle"/>
    <trip id="bicycle286" depart="2860.00" from="MalSt_2_1" to="TorPl_2_4" type="bicycle_bicycle"/>
    <trip id="bicycle287" depart="2870.00" from="GorSq_2_1" to="MalSt_1_1" type="bicycle_bicycle"/>
    <trip id="bicycle288" depart="2880.00" from="HunSt_1_1" to="GowSt_2_2" type="bicycle_bicycle"/>
    <trip id="bicycle289" depart="2890.00" from="GowSt_2_1" to="MalSt_1_1" type="bicycle_bicycle"/>
    <trip id="bicycle290" depart="2900.00" from="GorSq_2_1" to="MalSt_1_1" type="bicycle_bicycle"/>
    <trip id="bicycle291" depart="2910.00" from="RidGa_2_1" to="GorSq_1_3" type="bicycle_bicycle"/>