<?xml version="1.0" encoding="UTF-8"?>

<!-- generated on 2025-11-24 14:59:39.989123 by Eclipse SUMO randomTrips.py UNKNOWN
<configuration>
    <net-file value="../networks/demo/main.net.xml"/>
    <output-trip-file value="../routes/demo/11/bicycle.trips.xml"/>
    <route-file value="../routes/demo/11/bicycle.rou.xml"/>
    <prefix value="bicycle"/>
    <vehicle-class value="bicycle"/>
    <fringe-factor value="max"/>
    <seed value="11"/>
    <period value="10.0"/>
    <binomial value="100"/>
</configuration>
-->

<!-- generated on 2025-11-24T14:59:39.983313+00:00 by Eclipse SUMO duarouter 1.25.0
<duarouterConfiguration xmlns:xsi="http://www.w3.org/2001/XMLSchema-instance" xsi:noNamespaceSchemaLocation="http://sumo.dlr.de/xsd/duarouterConfiguration.xsd">

    <input>
        <net-file value="../networks/demo/main.net.xml"/>
        <route-files value="../routes/demo/11/bicycle.trips.xml"/>
    </input>

    <output>
        <output-file value="../routes/demo/11/bicycle.rou.xml"/>
        <alternatives-output value="NUL"/>
    </output>

    <time>
        <begin value="0"/>
        <end value="3600.0"/>
    </time>

    <report>
        <no-warnings value="true"/>
        <ignore-errors value="true"/>
        <no-step-log value="true"/>
    </report>

</duarouterConfiguration>
-->

<routes xmlns:xsi="http://www.w3.org/2001/XMLSchema-instance" xsi:noNamespaceSchemaLocation="http://sumo.dlr.de/xsd/routes_file.xsd">
    <vType id="bicycle_bicycle" vClass="bicycle"/>
    <vehicle id="bicycle0" type="bicycle_bicycle" depart="0.00">
        <route edges="GorSq_2_1 GorSq_2_2 BynPl_2_1 BynPl_2_2 BynPl_2_3 TorPl_2_1 TorPl_2_2 TorPl_2_3 TorPl_2_4"/>
    </vehicle>
    <vehicle id="bicycle1" type="bicycle_bicycle" depart="10.00">
        <route edges="GorSq_2_1 GorSq_2_2 BynPl_2_1 BynPl_2_2 BynPl_2_3 TorPl_2_1 GowSt_1_2"/>
    </vehicle>
    <vehicle id="bicycle2" type="bicycle_bicycle" depart="13.00">
        <route edges="HunSt_1_1 TorPl_1_2 TorPl_1_3 GowSt_1_2"/>
    </vehicle>
    <vehicle id="bicycle3" type="bicycle_bicycle" depart="21.00">
        <route edges="CheMe_1_1 TorPl_1_3 TorPl_1_4 MalSt_1_1"/>
    </vehicle>
    <vehicle id="bicycle4" type="bicycle_bicycle" depart="51.00">
        <route edges="GorSq_2_1 GorSq_2_2 GorSq_1_2 GorSq_1_3"/>
    </vehicle>
    <vehicle id="bicycle5" type="bicycle_bicycle" depart="65.00">
        <route edges="GorSq_1_1 GorSq_1_2 GorSq_1_3"/>
    </vehicle>
    <vehicle id="bicycle6" type="bicycle_bicycle" depart="73.00">
        <route edges="HunSt_1_1 TorPl_1_2 TorPl_1_3 GowSt_2_2"/>
    </vehicle>
    <vehicle id="bicycle7" type="bicycle_bicycle" depart="78.00">
        <route edges="GowSt_2_1 TorPl_2_2 TorPl_2_3 TorPl_2_4"/>
    </vehicle>
    <vehicle id="bicycle8" type="bicycle_bicycle" depart="86.00">
        <route edges="MalSt_2_1 TorPl_2_1 TorPl_1_4 MalSt_1_1"/>
    </vehicle>
    <vehicle id="bicycle9" type="bicycle_bicycle" depart="90.00">
        <route edges="GorSq_1_1 BynPl_2_1 BynPl_2_2 BynPl_2_3 TorPl_2_1 TorPl_2_2 TorPl_2_3 TorPl_2_4"/>
    </vehicle>
    <vehicle id="bicycle10" type="bicycle_bicycle" depart="101.00">
        <route edges="GorSq_2_1 GorSq_2_2 GorSq_1_2 GorSq_1_3"/>
    </vehicle>
    <vehicle id="bicycle11" type="bicycle_bicycle" depart="114.00">
        <route edges="TorPl_1_1 HunSt_1_2"/>
    </vehicle>
    <vehicle id="bicycle12" type="bicycle_bicycle" depart="123.00">
        <route edges="RidGa_2_1 TorPl_1_3 GowSt_2_2"/>
    </vehicle>
    <vehicle id="bicycle13" type="bicycle_bicycle" depart="131.00">
        <route edges="GorSq_1_1 BynPl_2_1 BynPl_2_2 BynPl_2_3 TorPl_2_1 TorPl_2_2 TorPl_2_3 TorPl_2_4"/>
    </vehicle>
    <vehicle id="bicycle14" type="bicycle_bicycle" depart="131.00">
        <route edges="GorSq_2_1 GorSq_2_2 GorSq_1_2 GorSq_1_3"/>
    </vehicle>
    <vehicle id="bicycle15" type="bicycle_bicycle" depart="142.00">
        <route edges="TorPl_1_1 TorPl_1_2 TorPl_1_3 TorPl_2_2 TorPl_2_3 TorPl_2_4"/>
    </vehicle>
    <vehicle id="bicycle16" type="bicycle_bicycle" depart="149.00">
        <route edges="MalSt_2_1 TorPl_2_1 TorPl_1_4 MalSt_1_1"/>
    </vehicle>
    <vehicle id="bicycle17" type="bicycle_bicycle" depart="161.00">
        <route edges="GowSt_1_1 TorPl_2_2 TorPl_2_3 TorPl_2_4"/>
    </vehicle>
    <vehicle id="bicycle18" type="bicycle_bicycle" depart="168.00">
        <route edges="GorSq_2_1 GorSq_2_2 GorSq_1_2 GorSq_1_3"/>
    </vehicle>
    <vehicle id="bicycle19" type="bicycle_bicycle" depart="174.00">
        <route edges="GorSq_1_1 GorSq_1_2 GorSq_1_3"/>
    </vehicle>
    <vehicle id="bicycle20" type="bicycle_bicycle" depart="188.00">
        <route edges="RidGa_2_1 TorPl_1_3 GowSt_1_2"/>
    </vehicle>
    <vehicle id="bicycle21" type="bicycle_bicycle" depart="190.00">
        <route edges="GowSt_1_1 GowSt_1_2"/>
    </vehicle>
    <vehicle id="bicycle22" type="bicycle_bicycle" depart="212.00">
        <route edges="GorSq_1_1 BynPl_2_1 BynPl_2_2 BynPl_2_3 TorPl_2_1 TorPl_2_2 TorPl_2_3 HunSt_1_2"/>
    </vehicle>
    <vehicle id="bicycle23" type="bicycle_bicycle" depart="216.00">
        <route edges="HunSt_2_1 TorPl_1_2 TorPl_1_3 TorPl_1_4 MalSt_1_1"/>
    </vehicle>
    <vehicle id="bicycle24" type="bicycle_bicycle" depart="220.00">
        <route edges="HunSt_2_1 TorPl_1_2 TorPl_1_3 TorPl_1_4 BynPl_1_1 BynPl_1_2 BynPl_1_3 GorSq_2_3"/>
    </vehicle>
    <vehicle id="bicycle25" type="bicycle_bicycle" depart="222.00">
        <route edges="TorPl_1_1 TorPl_1_2 TorPl_1_3 TorPl_1_4 BynPl_1_1 BynPl_1_2 BynPl_1_3 GorSq_1_2 GorSq_1_3"/>
    </vehicle>
    <vehicle id="bicycle26" type="bicycle_bicycle" depart="240.00">
        <route edges="HunSt_1_1 TorPl_1_2 TorPl_1_3 GowSt_1_2"/>
    </vehicle>
    <vehicle id="bicycle27" type="bicycle_bicycle" depart="263.00">
        <route edges="GorSq_2_1 GorSq_2_2 BynPl_2_1 BynPl_2_2 BynPl_2_3 TorPl_2_1 GowSt_2_2"/>
    </vehicle>
    <vehicle id="bicycle28" type="bicycle_bicycle" depart="270.00">
        <route edges="GorSq_1_1 BynPl_2_1 BynPl_2_2 BynPl_2_3 TorPl_2_1 GowSt_1_2"/>
    </vehicle>
    <vehicle id="bicycle29" type="bicycle_bicycle" depart="278.00">
        <route edges="RidGa_2_1 TorPl_1_3 GowSt_2_2"/>
    </vehicle>
    <vehicle id="bicycle30" type="bicycle_bicycle" depart="295.00">
        <route edges="GowSt_1_1 TorPl_2_2 TorPl_2_3 TorPl_2_4"/>
    </vehicle>
    <vehicle id="bicycle31" type="bicycle_bicycle" depart="321.00">
        <route edges="GorSq_2_1 GorSq_2_2 GorSq_2_3"/>
    </vehicle>
    <vehicle id="bicycle32" type="bicycle_bicycle" depart="329.00">
        <route edges="HunSt_1_1 TorPl_1_2 TorPl_1_3 TorPl_1_4 BynPl_1_1 BynPl_1_2 BynPl_1_3 GorSq_2_3"/>
    </vehicle>
    <vehicle id="bicycle33" type="bicycle_bicycle" depart="334.00">
        <route edges="GowSt_2_1 TorPl_1_4 BynPl_1_1 BynPl_1_2 BynPl_1_3 BynPl_2_1 BynPl_2_2 BynPl_2_3 TorPl_2_1 GowSt_1_2"/>
    </vehicle>
    <vehicle id="bicycle34" type="bicycle_bicycle" depart="340.00">
        <route edges="RidGa_2_1 TorPl_2_3 HunSt_1_2"/>
    </vehicle>
    <vehicle id="bicycle35" type="bicycle_bicycle" depart="347.00">
        <route edges="GorSq_1_1 BynPl_2_1 BynPl_2_2 BynPl_2_3 TorPl_2_1 TorPl_2_2 TorPl_2_3 TorPl_2_4"/>
    </vehicle>
    <vehicle id="bicycle36" type="bicycle_bicycle" depart="350.00">
        <route edges="GorSq_2_1 GorSq_2_2 BynPl_2_1 BynPl_2_2 BynPl_2_3 TorPl_2_1 GowSt_2_2"/>
    </vehicle>
    <vehicle id="bicycle37" type="bicycle_bicycle" depart="368.00">
        <route edges="CheMe_1_1 TorPl_1_3 TorPl_1_4 BynPl_1_1 BynPl_1_2 BynPl_1_3 GorSq_1_2 GorSq_1_3"/>
    </vehicle>
    <vehicle id="bicycle38" type="bicycle_bicycle" depart="403.00">
        <route edges="RidGa_2_1 TorPl_1_3 TorPl_1_4 BynPl_1_1 BynPl_1_2 BynPl_1_3 GorSq_2_3"/>
    </vehicle>
    <vehicle id="bicycle39" type="bicycle_bicycle" depart="405.00">
        <route edges="RidGa_2_1 TorPl_1_3 TorPl_1_4 BynPl_1_1 BynPl_1_2 BynPl_1_3 GorSq_1_2 GorSq_1_3"/>
    </vehicle>
    <vehicle id="bicycle40" type="bicycle_bicycle" depart="428.00">
        <route edges="GowSt_2_1 TorPl_2_2 TorPl_2_3 TorPl_2_4"/>
    </vehicle>
    <vehicle id="bicycle41" type="bicycle_bicycle" depart="434.00">
        <route edges="RidGa_2_1 TorPl_1_3 TorPl_1_4 MalSt_1_1"/>
    </vehicle>
    <vehicle id="bicycle42" type="bicycle_bicycle" depart="435.00">
        <route edges="HunSt_2_1 TorPl_2_4"/>
    </vehicle>
    <vehicle id="bicycle43" type="bicycle_bicycle" depart="459.00">
        <route edges="CheMe_1_1 TorPl_2_3 HunSt_1_2"/>
    </vehicle>
    <vehicle id="bicycle44" type="bicycle_bicycle" depart="459.00">
        <route edges="GorSq_2_1 GorSq_2_2 GorSq_2_3"/>
    </vehicle>
    <vehicle id="bicycle45" type="bicycle_bicycle" depart="478.00">
        <route edges="RidGa_2_1 TorPl_2_3 HunSt_1_2"/>
    </vehicle>
    <vehicle id="bicycle46" type="bicycle_bicycle" depart="484.00">
        <route edges="MalSt_2_1 TorPl_2_1 GowSt_1_2"/>
    </vehicle>
    <vehicle id="bicycle47" type="bicycle_bicycle" depart="488.00">
        <route edges="HunSt_1_1 HunSt_1_2"/>
    </vehicle>
    <vehicle id="bicycle48" type="bicycle_bicycle" depart="510.00">
        <route edges="HunSt_1_1 TorPl_1_2 TorPl_1_3 TorPl_1_4 BynPl_1_1 BynPl_1_2 BynPl_1_3 GorSq_1_2 GorSq_1_3"/>
    </vehicle>
    <vehicle id="bicycle49" type="bicycle_bicycle" depart="513.00">
        <route edges="HunSt_2_1 TorPl_1_2 TorPl_1_3 GowSt_2_2"/>
    </vehicle>
    <vehicle id="bicycle50" type="bicycle_bicycle" depart="518.00">
        <route edges="GorSq_2_1 GorSq_2_2 BynPl_2_1 BynPl_2_2 BynPl_2_3 TorPl_2_1 GowSt_1_2"/>
    </vehicle>
    <vehicle id="bicycle51" type="bicycle_bicycle" depart="519.00">
        <route edges="HunSt_2_1 TorPl_1_2 TorPl_1_3 GowSt_2_2"/>
    </vehicle>
    <vehicle id="bicycle52" type="bicycle_bicycle" depart="530.00">
        <route edges="RidGa_2_1 TorPl_1_3 TorPl_1_4 BynPl_1_1 BynPl_1_2 BynPl_1_3 GorSq_2_3"/>
    </vehicle>
    <vehicle id="bicycle53" type="bicycle_bicycle" depart="531.00">
        <route edges="HunSt_2_1 TorPl_1_2 TorPl_1_3 TorPl_2_2 TorPl_2_3 HunSt_1_2"/>
    </vehicle>
    <vehicle id="bicycle54" type="bicycle_bicycle" depart="540.00">
        <route edges="GowSt_1_1 TorPl_2_2 TorPl_2_3 HunSt_1_2"/>
    </vehicle>
    <vehicle id="bicycle55" type="bicycle_bicycle" depart="550.00">
        <route edges="GorSq_1_1 GorSq_1_2 GorSq_1_3"/>
    </vehicle>
    <vehicle id="bicycle56" type="bicycle_bicycle" depart="553.00">
        <route edges="CheMe_1_1 TorPl_1_3 TorPl_1_4 BynPl_1_1 BynPl_1_2 BynPl_1_3 GorSq_1_2 GorSq_1_3"/>
    </vehicle>
    <vehicle id="bicycle57" type="bicycle_bicycle" depart="554.00">
        <route edges="GowSt_2_1 TorPl_1_4 BynPl_1_1 BynPl_1_2 BynPl_1_3 GorSq_1_2 GorSq_1_3"/>
    </vehicle>
    <vehicle id="bicycle58" type="bicycle_bicycle" depart="556.00">
        <route edges="CheMe_1_1 TorPl_2_3 TorPl_2_4"/>
    </vehicle>
    <vehicle id="bicycle59" type="bicycle_bicycle" depart="561.00">
        <route edges="MalSt_2_1 BynPl_1_1 BynPl_1_2 BynPl_1_3 GorSq_1_2 GorSq_1_3"/>
    </vehicle>
    <vehicle id="bicycle60" type="bicycle_bicycle" depart="563.00">
        <route edges="GowSt_2_1 GowSt_2_2"/>
    </vehicle>
    <vehicle id="bicycle61" type="bicycle_bicycle" depart="575.00">
        <route edges="CheMe_1_1 TorPl_1_3 TorPl_1_4 BynPl_1_1 BynPl_1_2 BynPl_1_3 GorSq_1_2 GorSq_1_3"/>
    </vehicle>
    <vehicle id="bicycle62" type="bicycle_bicycle" depart="578.00">
        <route edges="GowSt_1_1 GowSt_1_2"/>
    </vehicle>
    <vehicle id="bicycle63" type="bicycle_bicycle" depart="588.00">
        <route edges="GowSt_2_1 TorPl_1_4 MalSt_1_1"/>
    </vehicle>
    <vehicle id="bicycle64" type="bicycle_bicycle" depart="619.00">
        <route edges="RidGa_2_1 TorPl_2_3 HunSt_1_2"/>
    </vehicle>
    <vehicle id="bicycle65" type="bicycle_bicycle" depart="622.00">
        <route edges="TorPl_1_1 HunSt_1_2"/>
    </vehicle>
    <vehicle id="bicycle66" type="bicycle_bicycle" depart="623.00">
        <route edges="HunSt_1_1 TorPl_1_2 TorPl_1_3 TorPl_1_4 MalSt_1_1"/>
    </vehicle>
    <vehicle id="bicycle67" type="bicycle_bicycle" depart="629.00">
        <route edges="HunSt_1_1 TorPl_1_2 TorPl_1_3 TorPl_1_4 BynPl_1_1 BynPl_1_2 BynPl_1_3 GorSq_2_3"/>
    </vehicle>
    <vehicle id="bicycle68" type="bicycle_bicycle" depart="639.00">
        <route edges="HunSt_2_1 TorPl_1_2 TorPl_1_3 GowSt_1_2"/>
    </vehicle>
    <vehicle id="bicycle69" type="bicycle_bicycle" depart="648.00">
        <route edges="GowSt_1_1 TorPl_1_4 BynPl_1_1 BynPl_1_2 BynPl_1_3 GorSq_1_2 GorSq_1_3"/>
    </vehicle>
    <vehicle id="bicycle70" type="bicycle_bicycle" depart="650.00">
        <route edges="GorSq_1_1 BynPl_2_1 BynPl_2_2 BynPl_2_3 MalSt_1_1"/>
    </vehicle>
    <vehicle id="bicycle71" type="bicycle_bicycle" depart="651.00">
        <route edges="GorSq_2_1 GorSq_2_2 BynPl_2_1 BynPl_2_2 BynPl_2_3 TorPl_2_1 GowSt_2_2"/>
    </vehicle>
    <vehicle id="bicycle72" type="bicycle_bicycle" depart="668.00">
        <route edges="TorPl_1_1 HunSt_1_2"/>
    </vehicle>
    <vehicle id="bicycle73" type="bicycle_bicycle" depart="676.00">
        <route edges="GowSt_2_1 TorPl_2_2 TorPl_2_3 TorPl_2_4"/>
    </vehicle>
    <vehicle id="bicycle74" type="bicycle_bicycle" depart="678.00">
        <route edges="CheMe_1_1 TorPl_2_3 HunSt_1_2"/>
    </vehicle>
    <vehicle id="bicycle75" type="bicycle_bicycle" depart="702.00">
        <route edges="RidGa_2_1 TorPl_1_3 TorPl_1_4 BynPl_1_1 BynPl_1_2 BynPl_1_3 GorSq_2_3"/>
    </vehicle>
    <vehicle id="bicycle76" type="bicycle_bicycle" depart="722.00">
        <route edges="HunSt_1_1 TorPl_1_2 TorPl_1_3 TorPl_1_4 MalSt_1_1"/>
    </vehicle>
    <vehicle id="bicycle77" type="bicycle_bicycle" depart="723.00">
        <route edges="GorSq_2_1 GorSq_2_2 GorSq_2_3"/>
    </vehicle>
    <vehicle id="bicycle78" type="bicycle_bicycle" depart="736.00">
        <route edges="GowSt_1_1 TorPl_1_4 MalSt_1_1"/>
    </vehicle>
    <vehicle id="bicycle79" type="bicycle_bicycle" depart="758.00">
        <route edges="GowSt_2_1 TorPl_2_2 TorPl_2_3 HunSt_1_2"/>
    </vehicle>
    <vehicle id="bicycle80" type="bicycle_bicycle" depart="763.00">
        <route edges="RidGa_2_1 TorPl_1_3 TorPl_1_4 MalSt_1_1"/>
    </vehicle>
    <vehicle id="bicycle81" type="bicycle_bicycle" depart="776.00">
        <route edges="CheMe_1_1 TorPl_1_3 GowSt_1_2"/>
    </vehicle>
    <vehicle id="bicycle82" type="bicycle_bicycle" depart="780.00">
        <route edges="TorPl_1_1 TorPl_1_2 TorPl_1_3 TorPl_2_2 TorPl_2_3 TorPl_2_4"/>
    </vehicle>
    <vehicle id="bicycle83" type="bicycle_bicycle" depart="799.00">
        <route edges="MalSt_2_1 TorPl_2_1 TorPl_1_4 MalSt_1_1"/>
    </vehicle>
    <vehicle id="bicycle84" type="bicycle_bicycle" depart="818.00">
        <route edges="MalSt_2_1 TorPl_2_1 TorPl_2_2 TorPl_2_3 TorPl_2_4"/>
    </vehicle>
    <vehicle id="bicycle85" type="bicycle_bicycle" depart="840.00">
        <route edges="TorPl_1_1 TorPl_1_2 TorPl_1_3 GowSt_2_2"/>
    </vehicle>
    <vehicle id="bicycle86" type="bicycle_bicycle" depart="841.00">
        <route edges="TorPl_1_1 TorPl_1_2 TorPl_1_3 TorPl_1_4 BynPl_1_1 BynPl_1_2 BynPl_1_3 GorSq_1_2 GorSq_1_3"/>
    </vehicle>
    <vehicle id="bicycle87" type="bicycle_bicycle" depart="848.00">
        <route edges="GorSq_2_1 GorSq_2_2 BynPl_2_1 BynPl_2_2 BynPl_2_3 MalSt_1_1"/>
    </vehicle>
    <vehicle id="bicycle88" type="bicycle_bicycle" depart="869.00">
        <route edges="GorSq_2_1 GorSq_2_2 BynPl_2_1 BynPl_2_2 BynPl_2_3 TorPl_2_1 TorPl_2_2 TorPl_2_3 HunSt_1_2"/>
    </vehicle>
    <vehicle id="bicycle89" type="bicycle_bicycle" depart="873.00">
        <route edges="CheMe_1_1 TorPl_2_3 TorPl_2_4"/>
    </vehicle>
    <vehicle id="bicycle90" type="bicycle_bicycle" depart="887.00">
        <route edges="RidGa_2_1 TorPl_1_3 TorPl_1_4 BynPl_1_1 BynPl_1_2 BynPl_1_3 GorSq_1_2 GorSq_1_3"/>
    </vehicle>
    <vehicle id="bicycle91" type="bicycle_bicycle" depart="889.00">
        <route edges="MalSt_2_1 TorPl_2_1 TorPl_1_4 MalSt_1_1"/>
    </vehicle>
    <vehicle id="bicycle92" type="bicycle_bicycle" depart="899.00">
        <route edges="HunSt_1_1 TorPl_1_2 TorPl_1_3 TorPl_1_4 BynPl_1_1 BynPl_1_2 BynPl_1_3 GorSq_1_2 GorSq_1_3"/>
    </vehicle>
    <vehicle id="bicycle93" type="bicycle_bicycle" depart="908.00">
        <route edges="CheMe_1_1 TorPl_1_3 TorPl_1_4 MalSt_1_1"/>
    </vehicle>
    <vehicle id="bicycle94" type="bicycle_bicycle" depart="911.00">
        <route edges="CheMe_1_1 TorPl_2_3 HunSt_1_2"/>
    </vehicle>
    <vehicle id="bicycle95" type="bicycle_bicycle" depart="941.00">
        <route edges="TorPl_1_1 TorPl_1_2 TorPl_1_3 TorPl_1_4 MalSt_1_1"/>
    </vehicle>
    <vehicle id="bicycle96" type="bicycle_bicycle" depart="944.00">
        <route edges="RidGa_2_1 TorPl_1_3 GowSt_1_2"/>
    </vehicle>
    <vehicle id="bicycle97" type="bicycle_bicycle" depart="955.00">
        <route edges="HunSt_2_1 TorPl_2_4"/>
    </vehicle>
    <vehicle id="bicycle98" type="bicycle_bicycle" depart="971.00">
        <route edges="MalSt_2_1 TorPl_2_1 GowSt_1_2"/>
    </vehicle>
    <vehicle id="bicycle99" type="bicycle_bicycle" depart="977.00">
        <route edges="GowSt_1_1 GowSt_1_2"/>
    </vehicle>
    <vehicle id="bicycle100" type="bicycle_bicycle" depart="989.00">
        <route edges="GorSq_1_1 BynPl_2_1 BynPl_2_2 BynPl_2_3 TorPl_2_1 TorPl_2_2 TorPl_2_3 HunSt_1_2"/>
    </vehicle>
    <vehicle id="bicycle101" type="bicycle_bicycle" depart="991.00">
        <route edges="MalSt_2_1 TorPl_2_1 TorPl_1_4 MalSt_1_1"/>
    </vehicle>
    <vehicle id="bicycle102" type="bicycle_bicycle" depart="996.00">
        <route edges="RidGa_2_1 TorPl_2_3 HunSt_1_2"/>
    </vehicle>
    <vehicle id="bicycle103" type="bicycle_bicycle" depart="1007.00">
        <route edges="GorSq_2_1 GorSq_2_2 BynPl_2_1 BynPl_2_2 BynPl_2_3 TorPl_2_1 TorPl_2_2 TorPl_2_3 TorPl_2_4"/>
    </vehicle>
    <vehicle id="bicycle104" type="bicycle_bicycle" depart="1040.00">
        <route edges="GowSt_1_1 GowSt_1_2"/>
    </vehicle>
    <vehicle id="bicycle105" type="bicycle_bicycle" depart="1043.00">
        <route edges="GorSq_2_1 GorSq_2_2 GorSq_2_3"/>
    </vehicle>
    <vehicle id="bicycle106" type="bicycle_bicycle" depart="1058.00">
        <route edges="TorPl_1_1 TorPl_1_2 TorPl_1_3 TorPl_1_4 BynPl_1_1 BynPl_1_2 BynPl_1_3 GorSq_2_3"/>
    </vehicle>
    <vehicle id="bicycle107" type="bicycle_bicycle" depart="1061.00">
        <route edges="GorSq_1_1 BynPl_2_1 BynPl_2_2 BynPl_2_3 MalSt_1_1"/>
    </vehicle>
    <vehicle id="bicycle108" type="bicycle_bicycle" depart="1061.00">
        <route edges="GorSq_2_1 GorSq_2_2 BynPl_2_1 BynPl_2_2 BynPl_2_3 TorPl_2_1 GowSt_1_2"/>
    </vehicle>
    <vehicle id="bicycle109" type="bicycle_bicycle" depart="1080.00">
        <route edges="GowSt_1_1 TorPl_1_4 BynPl_1_1 BynPl_1_2 BynPl_1_3 BynPl_2_1 BynPl_2_2 BynPl_2_3 TorPl_2_1 GowSt_2_2"/>
    </vehicle>
    <vehicle id="bicycle110" type="bicycle_bicycle" depart="1093.00">
        <route edges="GowSt_2_1 TorPl_2_2 TorPl_2_3 TorPl_2_4"/>
    </vehicle>
    <vehicle id="bicycle111" type="bicycle_bicycle" depart="1101.00">
        <route edges="RidGa_2_1 TorPl_1_3 TorPl_1_4 BynPl_1_1 BynPl_1_2 BynPl_1_3 GorSq_2_3"/>
    </vehicle>
    <vehicle id="bicycle112" type="bicycle_bicycle" depart="1120.00">
        <route edges="CheMe_1_1 TorPl_1_3 GowSt_1_2"/>
    </vehicle>
    <vehicle id="bicycle113" type="bicycle_bicycle" depart="1124.00">
        <route edges="GorSq_2_1 GorSq_2_2 BynPl_2_1 BynPl_2_2 BynPl_2_3 TorPl_2_1 TorPl_2_2 TorPl_2_3 HunSt_1_2"/>
    </vehicle>
    <vehicle id="bicycle114" type="bicycle_bicycle" depart="1130.00">
        <route edges="GorSq_2_1 GorSq_2_2 GorSq_1_2 GorSq_1_3"/>
    </vehicle>
    <vehicle id="bicycle115" type="bicycle_bicycle" depart="1135.00">
        <route edges="GorSq_1_1 BynPl_2_1 BynPl_2_2 BynPl_2_3 TorPl_2_1 GowSt_1_2"/>
    </vehicle>
    <vehicle id="bicycle116" type="bicycle_bicycle" depart="1152.00">
        <route edges="HunSt_2_1 TorPl_1_2 TorPl_1_3 TorPl_1_4 BynPl_1_1 BynPl_1_2 BynPl_1_3 GorSq_1_2 GorSq_1_3"/>
    </vehicle>
    <vehicle id="bicycle117" type="bicycle_bicycle" depart="1164.00">
        <route edges="HunSt_1_1 TorPl_1_2 TorPl_1_3 TorPl_1_4 BynPl_1_1 BynPl_1_2 BynPl_1_3 GorSq_2_3"/>
    </vehicle>
    <vehicle id="bicycle118" type="bicycle_bicycle" depart="1166.00">
        <route edges="GorSq_1_1 BynPl_2_1 BynPl_2_2 BynPl_2_3 TorPl_2_1 TorPl_2_2 TorPl_2_3 HunSt_1_2"/>
    </vehicle>
    <vehicle id="bicycle119" type="bicycle_bicycle" depart="1209.00">
        <route edges="TorPl_1_1 TorPl_1_2 TorPl_1_3 TorPl_2_2 TorPl_2_3 TorPl_2_4"/>
    </vehicle>
    <vehicle id="bicycle120" type="bicycle_bicycle" depart="1259.00">
        <route edges="MalSt_2_1 BynPl_1_1 BynPl_1_2 BynPl_1_3 GorSq_2_3"/>
    </vehicle>
    <vehicle id="bicycle121" type="bicycle_bicycle" depart="1266.00">
        <route edges="GowSt_1_1 TorPl_1_4 BynPl_1_1 BynPl_1_2 BynPl_1_3 BynPl_2_1 BynPl_2_2 BynPl_2_3 TorPl_2_1 GowSt_2_2"/>
    </vehicle>
    <vehicle id="bicycle122" type="bicycle_bicycle" depart="1270.00">
        <route edges="GorSq_1_1 GorSq_1_2 GorSq_1_3"/>
    </vehicle>
    <vehicle id="bicycle123" type="bicycle_bicycle" depart="1270.00">
        <route edges="HunSt_1_1 HunSt_1_2"/>
    </vehicle>
    <vehicle id="bicycle124" type="bicycle_bicycle" depart="1312.00">
        <route edges="GowSt_1_1 TorPl_1_4 BynPl_1_1 BynPl_1_2 BynPl_1_3 BynPl_2_1 BynPl_2_2 BynPl_2_3 TorPl_2_1 GowSt_2_2"/>
    </vehicle>
    <vehicle id="bicycle125" type="bicycle_bicycle" depart="1319.00">
        <route edges="RidGa_2_1 TorPl_2_3 HunSt_1_2"/>
    </vehicle>
    <vehicle id="bicycle126" type="bicycle_bicycle" depart="1324.00">
        <route edges="CheMe_1_1 TorPl_2_3 TorPl_2_4"/>
    </vehicle>
    <vehicle id="bicycle127" type="bicycle_bicycle" depart="1331.00">
        <route edges="TorPl_1_1 TorPl_1_2 TorPl_1_3 GowSt_2_2"/>
    </vehicle>
    <vehicle id="bicycle128" type="bicycle_bicycle" depart="1349.00">
        <route edges="GowSt_1_1 TorPl_1_4 BynPl_1_1 BynPl_1_2 BynPl_1_3 GorSq_1_2 GorSq_1_3"/>
    </vehicle>
    <vehicle id="bicycle129" type="bicycle_bicycle" depart="1354.00">
        <route edges="TorPl_1_1 HunSt_1_2"/>
    </vehicle>
    <vehicle id="bicycle130" type="bicycle_bicycle" depart="1416.00">
        <route edges="GorSq_1_1 BynPl_2_1 BynPl_2_2 BynPl_2_3 TorPl_2_1 TorPl_2_2 TorPl_2_3 TorPl_2_4"/>
    </vehicle>
    <vehicle id="bicycle131" type="bicycle_bicycle" depart="1429.00">
        <route edges="TorPl_1_1 TorPl_1_2 TorPl_1_3 GowSt_1_2"/>
    </vehicle>
    <vehicle id="bicycle132" type="bicycle_bicycle" depart="1436.00">
        <route edges="TorPl_1_1 TorPl_1_2 TorPl_1_3 TorPl_1_4 BynPl_1_1 BynPl_1_2 BynPl_1_3 GorSq_2_3"/>
    </vehicle>
    <vehicle id="bicycle133" type="bicycle_bicycle" depart="1438.00">
        <route edges="TorPl_1_1 TorPl_1_2 TorPl_1_3 TorPl_2_2 TorPl_2_3 TorPl_2_4"/>
    </vehicle>
    <vehicle id="bicycle134" type="bicycle_bicycle" depart="1440.00">
        <route edges="HunSt_2_1 TorPl_1_2 TorPl_1_3 TorPl_1_4 BynPl_1_1 BynPl_1_2 BynPl_1_3 GorSq_1_2 GorSq_1_3"/>
    </vehicle>
    <vehicle id="bicycle135" type="bicycle_bicycle" depart="1450.00">
        <route edges="HunSt_1_1 TorPl_1_2 TorPl_1_3 TorPl_1_4 BynPl_1_1 BynPl_1_2 BynPl_1_3 GorSq_1_2 GorSq_1_3"/>
    </vehicle>
    <vehicle id="bicycle136" type="bicycle_bicycle" depart="1450.00">
        <route edges="GowSt_1_1 GowSt_1_2"/>
    </vehicle>
    <vehicle id="bicycle137" type="bicycle_bicycle" depart="1452.00">
        <route edges="MalSt_2_1 TorPl_2_1 GowSt_2_2"/>
    </vehicle>
    <vehicle id="bicycle138" type="bicycle_bicycle" depart="1462.00">
        <route edges="GorSq_1_1 BynPl_2_1 BynPl_2_2 BynPl_2_3 MalSt_1_1"/>
    </vehicle>
    <vehicle id="bicycle139" type="bicycle_bicycle" depart="1464.00">
        <route edges="GorSq_2_1 GorSq_2_2 BynPl_2_1 BynPl_2_2 BynPl_2_3 TorPl_2_1 TorPl_2_2 TorPl_2_3 TorPl_2_4"/>
    </vehicle>
    <vehicle id="bicycle140" type="bicycle_bicycle" depart="1464.00">
        <route edges="GowSt_2_1 GowSt_2_2"/>
    </vehicle>
    <vehicle id="bicycle141" type="bicycle_bicycle" depart="1467.00">
        <route edges="HunSt_1_1 TorPl_1_2 TorPl_1_3 TorPl_1_4 MalSt_1_1"/>
    </vehicle>
    <vehicle id="bicycle142" type="bicycle_bicycle" depart="1475.00">
        <route edges="GorSq_1_1 BynPl_2_1 BynPl_2_2 BynPl_2_3 MalSt_1_1"/>
    </vehicle>
    <vehicle id="bicycle143" type="bicycle_bicycle" depart="1492.00">
        <route edges="GowSt_2_1 TorPl_1_4 BynPl_1_1 BynPl_1_2 BynPl_1_3 BynPl_2_1 BynPl_2_2 BynPl_2_3 TorPl_2_1 GowSt_1_2"/>
    </vehicle>
    <vehicle id="bicycle144" type="bicycle_bicycle" depart="1507.00">
        <route edges="GowSt_2_1 GowSt_2_2"/>
    </vehicle>
    <vehicle id="bicycle145" type="bicycle_bicycle" depart="1514.00">
        <route edges="GorSq_1_1 BynPl_2_1 BynPl_2_2 BynPl_2_3 BynPl_1_1 BynPl_1_2 BynPl_1_3 GorSq_2_3"/>
    </vehicle>
    <vehicle id="bicycle146" type="bicycle_bicycle" depart="1519.00">
        <route edges="RidGa_2_1 TorPl_1_3 GowSt_1_2"/>
    </vehicle>
    <vehicle id="bicycle147" type="bicycle_bicycle" depart="1523.00">
        <route edges="TorPl_1_1 TorPl_1_2 TorPl_1_3 GowSt_2_2"/>
    </vehicle>
    <vehicle id="bicycle148" type="bicycle_bicycle" depart="1525.00">
        <route edges="GorSq_2_1 GorSq_2_2 BynPl_2_1 BynPl_2_2 BynPl_2_3 TorPl_2_1 TorPl_2_2 TorPl_2_3 TorPl_2_4"/>
    </vehicle>
    <vehicle id="bicycle149" type="bicycle_bicycle" depart="1536.00">
        <route edges="HunSt_1_1 TorPl_1_2 TorPl_1_3 GowSt_1_2"/>
    </vehicle>
    <vehicle id="bicycle150" type="bicycle_bicycle" depart="1546.00">
        <route edges="GowSt_1_1 TorPl_1_4 BynPl_1_1 BynPl_1_2 BynPl_1_3 GorSq_2_3"/>
    </vehicle>
    <vehicle id="bicycle151" type="bicycle_bicycle" depart="1557.00">
        <route edges="HunSt_2_1 TorPl_1_2 TorPl_1_3 GowSt_2_2"/>
    </vehicle>
    <vehicle id="bicycle152" type="bicycle_bicycle" depart="1560.00">
        <route edges="HunSt_2_1 TorPl_1_2 TorPl_1_3 TorPl_1_4 BynPl_1_1 BynPl_1_2 BynPl_1_3 GorSq_1_2 GorSq_1_3"/>
    </vehicle>
    <vehicle id="bicycle153" type="bicycle_bicycle" depart="1563.00">
        <route edges="HunSt_2_1 TorPl_1_2 TorPl_1_3 TorPl_1_4 BynPl_1_1 BynPl_1_2 BynPl_1_3 GorSq_1_2 GorSq_1_3"/>
    </vehicle>
    <vehicle id="bicycle154" type="bicycle_bicycle" depart="1564.00">
        <route edges="GowSt_1_1 TorPl_2_2 TorPl_2_3 HunSt_1_2"/>
    </vehicle>
    <vehicle id="bicycle155" type="bicycle_bicycle" depart="1569.00">
        <route edges="GorSq_1_1 BynPl_2_1 BynPl_2_2 BynPl_2_3 TorPl_2_1 TorPl_2_2 TorPl_2_3 HunSt_1_2"/>
    </vehicle>
    <vehicle id="bicycle156" type="bicycle_bicycle" depart="1576.00">
        <route edges="GorSq_2_1 GorSq_2_2 BynPl_2_1 BynPl_2_2 BynPl_2_3 MalSt_1_1"/>
    </vehicle>
    <vehicle id="bicycle157" type="bicycle_bicycle" depart="1578.00">
        <route edges="GowSt_2_1 TorPl_2_2 TorPl_2_3 TorPl_2_4"/>
    </vehicle>
    <vehicle id="bicycle158" type="bicycle_bicycle" depart="1579.00">
        <route edges="GowSt_1_1 TorPl_1_4 MalSt_1_1"/>
    </vehicle>
    <vehicle id="bicycle159" type="bicycle_bicycle" depart="1604.00">
        <route edges="TorPl_1_1 TorPl_1_2 TorPl_1_3 TorPl_1_4 BynPl_1_1 BynPl_1_2 BynPl_1_3 GorSq_1_2 GorSq_1_3"/>
    </vehicle>
    <vehicle id="bicycle160" type="bicycle_bicycle" depart="1614.00">
        <route edges="GorSq_1_1 GorSq_1_2 GorSq_1_3"/>
    </vehicle>
    <vehicle id="bicycle161" type="bicycle_bicycle" depart="1618.00">
        <route edges="CheMe_1_1 TorPl_2_3 HunSt_1_2"/>
    </vehicle>
    <vehicle id="bicycle162" type="bicycle_bicycle" depart="1619.00">
        <route edges="GorSq_2_1 GorSq_2_2 GorSq_2_3"/>
    </vehicle>
    <vehicle id="bicycle163" type="bicycle_bicycle" depart="1624.00">
        <route edges="MalSt_2_1 TorPl_2_1 TorPl_1_4 MalSt_1_1"/>
    </vehicle>
    <vehicle id="bicycle164" type="bicycle_bicycle" depart="1642.00">
        <route edges="HunSt_1_1 TorPl_1_2 TorPl_1_3 GowSt_2_2"/>
    </vehicle>
    <vehicle id="bicycle165" type="bicycle_bicycle" depart="1648.00">
        <route edges="MalSt_2_1 BynPl_1_1 BynPl_1_2 BynPl_1_3 GorSq_1_2 GorSq_1_3"/>
    </vehicle>
    <vehicle id="bicycle166" type="bicycle_bicycle" depart="1655.00">
        <route edges="GorSq_1_1 BynPl_2_1 BynPl_2_2 BynPl_2_3 BynPl_1_1 BynPl_1_2 BynPl_1_3 GorSq_2_3"/>
    </vehicle>
    <vehicle id="bicycle167" type="bicycle_bicycle" depart="1663.00">
        <route edges="GowSt_1_1 TorPl_1_4 BynPl_1_1 BynPl_1_2 BynPl_1_3 GorSq_2_3"/>
    </vehicle>
    <vehicle id="bicycle168" type="bicycle_bicycle" depart="1681.00">
        <route edges="GorSq_2_1 GorSq_2_2 GorSq_2_3"/>
    </vehicle>
    <vehicle id="bicycle169" type="bicycle_bicycle" depart="1684.00">
        <route edges="GowSt_2_1 GowSt_2_2"/>
    </vehicle>
    <vehicle id="bicycle170" type="bicycle_bicycle" depart="1698.00">
        <route edges="GorSq_2_1 GorSq_2_2 BynPl_2_1 BynPl_2_2 BynPl_2_3 TorPl_2_1 TorPl_2_2 TorPl_2_3 TorPl_2_4"/>
    </vehicle>
    <vehicle id="bicycle171" type="bicycle_bicycle" depart="1714.00">
        <route edges="HunSt_1_1 TorPl_1_2 TorPl_1_3 GowSt_1_2"/>
    </vehicle>
    <vehicle id="bicycle172" type="bicycle_bicycle" depart="1715.00">
        <route edges="GorSq_1_1 BynPl_2_1 BynPl_2_2 BynPl_2_3 TorPl_2_1 GowSt_2_2"/>
    </vehicle>
    <vehicle id="bicycle173" type="bicycle_bicycle" depart="1733.00">
        <route edges="GorSq_1_1 BynPl_2_1 BynPl_2_2 BynPl_2_3 TorPl_2_1 GowSt_1_2"/>
    </vehicle>
    <vehicle id="bicycle174" type="bicycle_bicycle" depart="1737.00">
        <route edges="GorSq_1_1 GorSq_1_2 GorSq_1_3"/>
    </vehicle>
    <vehicle id="bicycle175" type="bicycle_bicycle" depart="1751.00">
        <route edges="GorSq_1_1 BynPl_2_1 BynPl_2_2 BynPl_2_3 TorPl_2_1 TorPl_2_2 TorPl_2_3 TorPl_2_4"/>
    </vehicle>
    <vehicle id="bicycle176" type="bicycle_bicycle" depart="1779.00">
        <route edges="TorPl_1_1 HunSt_1_2"/>
    </vehicle>
    <vehicle id="bicycle177" type="bicycle_bicycle" depart="1785.00">