<?xml version="1.0" encoding="UTF-8"?>

<!-- generated on 2025-12-31 15:31:18.910998 by Eclipse SUMO randomTrips.py UNKNOWN
<configuration>
    <net-file value="../networks/demo/main.net.xml"/>
    <output-trip-file value="../routes/demo/eval/50/bicycle.trips.xml"/>
    <route-file value="../routes/demo/eval/50/bicycle.rou.xml"/>
    <prefix value="bicycle"/>
    <vehicle-class value="bicycle"/>
    <fringe-factor value="max"/>
    <seed value="50"/>
    <insertion-density value="50.0"/>
    <binomial value="100"/>
</configuration>
-->

<!-- generated on 2025-12-31T15:31:18.905358+00:00 by Eclipse SUMO duarouter 1.25.0
<duarouterConfiguration xmlns:xsi="http://www.w3.org/2001/XMLSchema-instance" xsi:noNamespaceSchemaLocation="http://sumo.dlr.de/xsd/duarouterConfiguration.xsd">

    <input>
        <net-file value="../networks/demo/main.net.xml"/>
        <route-files value="../routes/demo/eval/50/bicycle.trips.xml"/>
    </input>

    <output>
        <output-file value="../routes/demo/eval/50/bicycle.rou.xml"/>
        <alternatives-output value="NUL"/>
    </output>

    <time>
        <begin value="0"/>
        <end value="3600.0"/>
    </time>

    <report>
        <no-warnings value="true"/>
        <ignore-errors value="true"/>
        <no-step-log value="true"/>
    </report>

</duarouterConfiguration>
-->

<routes xmlns:xsi="http://www.w3.org/2001/XMLSchema-instance" xsi:noNamespaceSchemaLocation="http://sumo.dlr.de/xsd/routes_file.xsd">
    <vType id="bicycle_bicycle" vClass="bicycle"/>
    <vehicle id="bicycle0" type="bicycle_bicycle" depart="38.00">
        <route edges="TorPl_1_1 TorPl_1_2 TorPl_1_3 TorPl_1_4 MalSt_1_1"/>
    </vehicle>
    <vehicle id="bicycle1" type="bicycle_bicycle" depart="42.00">
        <route edges="MalSt_2_1 TorPl_2_1 TorPl_2_2 TorPl_2_3 HunSt_1_2"/>
    </vehicle>
    <vehicle id="bicycle2" type="bicycle_bicycle" depart="62.00">
        <route edges="HunSt_1_1 TorPl_1_2 TorPl_1_3 TorPl_1_4 BynPl_1_1 BynPl_1_2 BynPl_1_3 GorSq_1_2 GorSq_1_3"/>
    </vehicle>
    <vehicle id="bicycle3" type="bicycle_bicycle" depart="138.00">
        <route edges="GowSt_1_1 TorPl_1_4 MalSt_1_1"/>
    </vehicle>
    <vehicle id="bicycle4" type="bicycle_bicycle" depart="150.00">
        <route edges="CheMe_1_1 TorPl_1_3 GowSt_1_2"/>
    </vehicle>
    <vehicle id="bicycle5" type="bicycle_bicycle" depart="156.00">
        <route edges="GowSt_2_1 TorPl_2_2 TorPl_2_3 TorPl_2_4"/>
    </vehicle>
    <vehicle id="bicycle6" type="bicycle_bicycle" depart="161.00">
        <route edges="RidGa_2_1 TorPl_1_3 GowSt_2_2"/>
    </vehicle>
    <vehicle id="bicycle7" type="bicycle_bicycle" depart="174.00">
        <route edges="GorSq_1_1 BynPl_2_1 BynPl_2_2 BynPl_2_3 TorPl_2_1 TorPl_2_2 TorPl_2_3 HunSt_1_2"/>
    </vehicle>
    <vehicle id="bicycle8" type="bicycle_bicycle" depart="181.00">
        <route edges="MalSt_2_1 TorPl_2_1 TorPl_2_2 TorPl_2_3 HunSt_1_2"/>
    </vehicle>
    <vehicle id="bicycle9" type="bicycle_bicycle" depart="211.00">
        <route edges="HunSt_1_1 TorPl_1_2 TorPl_1_3 TorPl_1_4 BynPl_1_1 BynPl_1_2 BynPl_1_3 GorSq_1_2 GorSq_1_3"/>
    </vehicle>
    <vehicle id="bicycle10" type="bicycle_bicycle" depart="234.00">
        <route edges="GowSt_2_1 TorPl_1_4 MalSt_1_1"/>
    </vehicle>
    <vehicle id="bicycle11" type="bicycle_bicycle" depart="239.00">
        <route edges="RidGa_2_1 TorPl_1_3 TorPl_1_4 BynPl_1_1 BynPl_1_2 BynPl_1_3 GorSq_2_3"/>
    </vehicle>
    <vehicle id="bicycle12" type="bicycle_bicycle" depart="262.00">
        <route edges="HunSt_1_1 TorPl_2_4"/>
    </vehicle>
    <vehicle id="bicycle13" type="bicycle_bicycle" depart="263.00">
        <route edges="HunSt_2_1 TorPl_1_2 TorPl_1_3 TorPl_1_4 BynPl_1_1 BynPl_1_2 BynPl_1_3 GorSq_1_2 GorSq_1_3"/>
    </vehicle>
    <vehicle id="bicycle14" type="bicycle_bicycle" depart="276.00">
        <route edges="GorSq_2_1 GorSq_2_2 BynPl_2_1 BynPl_2_2 BynPl_2_3 TorPl_2_1 TorPl_2_2 TorPl_2_3 HunSt_1_2"/>
    </vehicle>
    <vehicle id="bicycle15" type="bicycle_bicycle" depart="281.00">
        <route edges="HunSt_2_1 TorPl_1_2 TorPl_1_3 GowSt_1_2"/>
    </vehicle>
    <vehicle id="bicycle16" type="bicycle_bicycle" depart="299.00">
        <route edges="MalSt_2_1 TorPl_2_1 TorPl_2_2 TorPl_2_3 TorPl_2_4"/>
    </vehicle>
    <vehicle id="bicycle17" type="bicycle_bicycle" depart="362.00">
        <route edges="HunSt_2_1 TorPl_1_2 TorPl_1_3 TorPl_1_4 MalSt_1_1"/>
    </vehicle>
    <vehicle id="bicycle18" type="bicycle_bicycle" depart="368.00">
        <route edges="GorSq_2_1 GorSq_2_2 GorSq_2_3"/>
    </vehicle>
    <vehicle id="bicycle19" type="bicycle_bicycle" depart="441.00">
        <route edges="GorSq_2_1 GorSq_2_2 GorSq_2_3"/>
    </vehicle>
    <vehicle id="bicycle20" type="bicycle_bicycle" depart="454.00">
        <route edges="TorPl_1_1 TorPl_1_2 TorPl_1_3 TorPl_1_4 MalSt_1_1"/>
    </vehicle>
    <vehicle id="bicycle21" type="bicycle_bicycle" depart="454.00">
        <route edges="HunSt_2_1 TorPl_1_2 TorPl_1_3 TorPl_1_4 BynPl_1_1 BynPl_1_2 BynPl_1_3 GorSq_2_3"/>
    </vehicle>
    <vehicle id="bicycle22" type="bicycle_bicycle" depart="460.00">
        <route edges="GorSq_1_1 BynPl_2_1 BynPl_2_2 BynPl_2_3 BynPl_1_1 BynPl_1_2 BynPl_1_3 GorSq_2_3"/>
    </vehicle>
    <vehicle id="bicycle23" type="bicycle_bicycle" depart="469.00">
        <route edges="TorPl_1_1 HunSt_1_2"/>
    </vehicle>
    <vehicle id="bicycle24" type="bicycle_bicycle" depart="517.00">
        <route edges="GowSt_2_1 GowSt_2_2"/>
    </vehicle>
    <vehicle id="bicycle25" type="bicycle_bicycle" depart="536.00">
        <route edges="GowSt_1_1 TorPl_2_2 TorPl_2_3 HunSt_1_2"/>
    </vehicle>
    <vehicle id="bicycle26" type="bicycle_bicycle" depart="549.00">
        <route edges="HunSt_1_1 TorPl_1_2 TorPl_1_3 TorPl_1_4 BynPl_1_1 BynPl_1_2 BynPl_1_3 GorSq_2_3"/>
    </vehicle>
    <vehicle id="bicycle27" type="bicycle_bicycle" depart="558.00">
        <route edges="GorSq_2_1 GorSq_2_2 BynPl_2_1 BynPl_2_2 BynPl_2_3 TorPl_2_1 TorPl_2_2 TorPl_2_3 HunSt_1_2"/>
    </vehicle>
    <vehicle id="bicycle28" type="bicycle_bicycle" depart="580.00">
        <route edges="GorSq_1_1 BynPl_2_1 BynPl_2_2 BynPl_2_3 TorPl_2_1 GowSt_2_2"/>
    </vehicle>
    <vehicle id="bicycle29" type="bicycle_bicycle" depart="595.00">
        <route edges="HunSt_1_1 TorPl_1_2 TorPl_1_3 GowSt_2_2"/>
    </vehicle>
    <vehicle id="bicycle30" type="bicycle_bicycle" depart="598.00">
        <route edges="HunSt_1_1 HunSt_1_2"/>
    </vehicle>
    <vehicle id="bicycle31" type="bicycle_bicycle" depart="605.00">
        <route edges="GorSq_1_1 BynPl_2_1 BynPl_2_2 BynPl_2_3 TorPl_2_1 GowSt_2_2"/>
    </vehicle>
    <vehicle id="bicycle32" type="bicycle_bicycle" depart="609.00">
        <route edges="GorSq_1_1 BynPl_2_1 BynPl_2_2 BynPl_2_3 TorPl_2_1 GowSt_1_2"/>
    </vehicle>
    <vehicle id="bicycle33" type="bicycle_bicycle" depart="623.00">
        <route edges="RidGa_2_1 TorPl_2_3 HunSt_1_2"/>
    </vehicle>
    <vehicle id="bicycle34" type="bicycle_bicycle" depart="625.00">
        <route edges="HunSt_1_1 TorPl_1_2 TorPl_1_3 GowSt_2_2"/>
    </vehicle>
    <vehicle id="bicycle35" type="bicycle_bicycle" depart="642.00">
        <route edges="GorSq_2_1 GorSq_2_2 BynPl_2_1 BynPl_2_2 BynPl_2_3 TorPl_2_1 GowSt_1_2"/>
    </vehicle>
    <vehicle id="bicycle36" type="bicycle_bicycle" depart="646.00">
        <route edges="HunSt_1_1 TorPl_1_2 TorPl_1_3 TorPl_1_4 MalSt_1_1"/>
    </vehicle>
    <vehicle id="bicycle37" type="bicycle_bicycle" depart="672.00">
        <route edges="GowSt_2_1 GowSt_2_2"/>
    </vehicle>
    <vehicle id="bicycle38" type="bicycle_bicycle" depart="691.00">
        <route edges="TorPl_1_1 TorPl_1_2 TorPl_1_3 TorPl_1_4 BynPl_1_1 BynPl_1_2 BynPl_1_3 GorSq_1_2 GorSq_1_3"/>
    </vehicle>
    <vehicle id="bicycle39" type="bicycle_bicycle" depart="691.00">
        <route edges="GowSt_2_1 GowSt_2_2"/>
    </vehicle>
    <vehicle id="bicycle40" type="bicycle_bicycle" depart="699.00">
        <route edges="HunSt_2_1 TorPl_1_2 TorPl_1_3 TorPl_1_4 MalSt_1_1"/>
    </vehicle>
    <vehicle id="bicycle41" type="bicycle_bicycle" depart="722.00">
        <route edges="RidGa_2_1 TorPl_1_3 GowSt_1_2"/>
    </vehicle>
    <vehicle id="bicycle42" type="bicycle_bicycle" depart="724.00">
        <route edges="TorPl_1_1 TorPl_1_2 TorPl_1_3 TorPl_2_2 TorPl_2_3 TorPl_2_4"/>
    </vehicle>
    <vehicle id="bicycle43" type="bicycle_bicycle" depart="734.00">
        <route edges="HunSt_2_1 TorPl_1_2 TorPl_1_3 TorPl_1_4 BynPl_1_1 BynPl_1_2 BynPl_1_3 GorSq_2_3"/>
    </vehicle>
    <vehicle id="bicycle44" type="bicycle_bicycle" depart="739.00">
        <route edges="TorPl_1_1 TorPl_1_2 TorPl_1_3 TorPl_1_4 BynPl_1_1 BynPl_1_2 BynPl_1_3 GorSq_2_3"/>
    </vehicle>
    <vehicle id="bicycle45" type="bicycle_bicycle" depart="757.00">
        <route edges="TorPl_1_1 TorPl_1_2 TorPl_1_3 GowSt_2_2"/>
    </vehicle>
    <vehicle id="bicycle46" type="bicycle_bicycle" depart="772.00">
        <route edges="CheMe_1_1 TorPl_1_3 TorPl_1_4 BynPl_1_1 BynPl_1_2 BynPl_1_3 GorSq_1_2 GorSq_1_3"/>
    </vehicle>
    <vehicle id="bicycle47" type="bicycle_bicycle" depart="773.00">
        <route edges="CheMe_1_1 TorPl_1_3 TorPl_1_4 BynPl_1_1 BynPl_1_2 BynPl_1_3 GorSq_1_2 GorSq_1_3"/>
    </vehicle>
    <vehicle id="bicycle48" type="bicycle_bicycle" depart="774.00">
        <route edges="TorPl_1_1 HunSt_1_2"/>
    </vehicle>
    <vehicle id="bicycle49" type="bicycle_bicycle" depart="788.00">
        <route edges="RidGa_2_1 TorPl_1_3 GowSt_1_2"/>
    </vehicle>
    <vehicle id="bicycle50" type="bicycle_bicycle" depart="798.00">
        <route edges="CheMe_1_1 TorPl_2_3 HunSt_1_2"/>
    </vehicle>
    <vehicle id="bicycle51" type="bicycle_bicycle" depart="811.00">
        <route edges="HunSt_2_1 TorPl_1_2 TorPl_1_3 GowSt_1_2"/>
    </vehicle>
    <vehicle id="bicycle52" type="bicycle_bicycle" depart="827.00">
        <route edges="HunSt_1_1 TorPl_1_2 TorPl_1_3 TorPl_1_4 BynPl_1_1 BynPl_1_2 BynPl_1_3 GorSq_2_3"/>
    </vehicle>
    <vehicle id="bicycle53" type="bicycle_bicycle" depart="829.00">
        <route edges="TorPl_1_1 TorPl_1_2 TorPl_1_3 GowSt_1_2"/>
    </vehicle>
    <vehicle id="bicycle54" type="bicycle_bicycle" depart="859.00">
        <route edges="GorSq_2_1 GorSq_2_2 BynPl_2_1 BynPl_2_2 BynPl_2_3 TorPl_2_1 GowSt_1_2"/>
    </vehicle>
    <vehicle id="bicycle55" type="bicycle_bicycle" depart="862.00">
        <route edges="GorSq_2_1 GorSq_2_2 GorSq_1_2 GorSq_1_3"/>
    </vehicle>
    <vehicle id="bicycle56" type="bicycle_bicycle" depart="865.00">
        <route edges="GowSt_1_1 TorPl_2_2 TorPl_2_3 TorPl_2_4"/>
    </vehicle>
    <vehicle id="bicycle57" type="bicycle_bicycle" depart="871.00">
        <route edges="GowSt_2_1 TorPl_1_4 BynPl_1_1 BynPl_1_2 BynPl_1_3 GorSq_1_2 GorSq_1_3"/>
    </vehicle>
    <vehicle id="bicycle58" type="bicycle_bicycle" depart="881.00">
        <route edges="CheMe_1_1 TorPl_2_3 HunSt_1_2"/>
    </vehicle>
    <vehicle id="bicycle59" type="bicycle_bicycle" depart="900.00">
        <route edges="CheMe_1_1 TorPl_2_3 TorPl_2_4"/>
    </vehicle>
    <vehicle id="bicycle60" type="bicycle_bicycle" depart="941.00">
        <route edges="TorPl_1_1 TorPl_1_2 TorPl_1_3 TorPl_2_2 TorPl_2_3 TorPl_2_4"/>
    </vehicle>
    <vehicle id="bicycle61" type="bicycle_bicycle" depart="979.00">
        <route edges="GorSq_2_1 GorSq_2_2 GorSq_2_3"/>
    </vehicle>
    <vehicle id="bicycle62" type="bicycle_bicycle" depart="1003.00">
        <route edges="HunSt_1_1 HunSt_1_2"/>
    </vehicle>
    <vehicle id="bicycle63" type="bicycle_bicycle" depart="1038.00">
        <route edges="HunSt_2_1 TorPl_1_2 TorPl_1_3 TorPl_1_4 BynPl_1_1 BynPl_1_2 BynPl_1_3 GorSq_1_2 GorSq_1_3"/>
    </vehicle>
    <vehicle id="bicycle64" type="bicycle_bicycle" depart="1083.00">
        <route edges="GowSt_1_1 TorPl_1_4 BynPl_1_1 BynPl_1_2 BynPl_1_3 GorSq_1_2 GorSq_1_3"/>
    </vehicle>
    <vehicle id="bicycle65" type="bicycle_bicycle" depart="1097.00">
        <route edges="GowSt_2_1 GowSt_2_2"/>
    </vehicle>
    <vehicle id="bicycle66" type="bicycle_bicycle" depart="1135.00">
        <route edges="GorSq_1_1 BynPl_2_1 BynPl_2_2 BynPl_2_3 MalSt_1_1"/>
    </vehicle>
    <vehicle id="bicycle67" type="bicycle_bicycle" depart="1144.00">
        <route edges="HunSt_1_1 HunSt_1_2"/>
    </vehicle>
    <vehicle id="bicycle68" type="bicycle_bicycle" depart="1149.00">
        <route edges="GowSt_2_1 TorPl_2_2 TorPl_2_3 HunSt_1_2"/>
    </vehicle>
    <vehicle id="bicycle69" type="bicycle_bicycle" depart="1163.00">
        <route edges="GorSq_2_1 GorSq_2_2 GorSq_1_2 GorSq_1_3"/>
    </vehicle>
    <vehicle id="bicycle70" type="bicycle_bicycle" depart="1164.00">
        <route edges="GowSt_2_1 TorPl_2_2 TorPl_2_3 TorPl_2_4"/>
    </vehicle>
    <vehicle id="bicycle71" type="bicycle_bicycle" depart="1175.00">
        <route edges="RidGa_2_1 TorPl_1_3 GowSt_1_2"/>
    </vehicle>
    <vehicle id="bicycle72" type="bicycle_bicycle" depart="1187.00">
        <route edges="RidGa_2_1 TorPl_1_3 TorPl_1_4 MalSt_1_1"/>
    </vehicle>
    <vehicle id="bicycle73" type="bicycle_bicycle" depart="1196.00">
        <route edges="GorSq_1_1 BynPl_2_1 BynPl_2_2 BynPl_2_3 TorPl_2_1 TorPl_2_2 TorPl_2_3 HunSt_1_2"/>
    </vehicle>
    <vehicle id="bicycle74" type="bicycle_bicycle" depart="1200.00">
        <route edges="GowSt_1_1 TorPl_2_2 TorPl_2_3 HunSt_1_2"/>
    </vehicle>
    <vehicle id="bicycle75" type="bicycle_bicycle" depart="1209.00">
        <route edges="TorPl_1_1 TorPl_1_2 TorPl_1_3 GowSt_1_2"/>
    </vehicle>
    <vehicle id="bicycle76" type="bicycle_bicycle" depart="1239.00">
        <route edges="RidGa_2_1 TorPl_1_3 TorPl_1_4 MalSt_1_1"/>
    </vehicle>
    <vehicle id="bicycle77" type="bicycle_bicycle" depart="1240.00">
        <route edges="GorSq_2_1 GorSq_2_2 BynPl_2_1 BynPl_2_2 BynPl_2_3 TorPl_2_1 GowSt_2_2"/>
    </vehicle>
    <vehicle id="bicycle78" type="bicycle_bicycle" depart="1244.00">
        <route edges="MalSt_2_1 TorPl_2_1 TorPl_2_2 TorPl_2_3 TorPl_2_4"/>
    </vehicle>
    <vehicle id="bicycle79" type="bicycle_bicycle" depart="1279.00">
        <route edges="HunSt_2_1 TorPl_2_4"/>
    </vehicle>
    <vehicle id="bicycle80" type="bicycle_bicycle" depart="1302.00">
        <route edges="HunSt_2_1 TorPl_2_4"/>
    </vehicle>
    <vehicle id="bicycle81" type="bicycle_bicycle" depart="1305.00">
        <route edges="TorPl_1_1 TorPl_1_2 TorPl_1_3 TorPl_1_4 BynPl_1_1 BynPl_1_2 BynPl_1_3 GorSq_1_2 GorSq_1_3"/>
    </vehicle>
    <vehicle id="bicycle82" type="bicycle_bicycle" depart="1320.00">
        <route edges="GorSq_2_1 GorSq_2_2 BynPl_2_1 BynPl_2_2 BynPl_2_3 MalSt_1_1"/>
    </vehicle>
    <vehicle id="bicycle83" type="bicycle_bicycle" depart="1335.00">
        <route edges="MalSt_2_1 TorPl_2_1 TorPl_2_2 TorPl_2_3 TorPl_2_4"/>
    </vehicle>
    <vehicle id="bicycle84" type="bicycle_bicycle" depart="1350.00">
        <route edges="GorSq_2_1 GorSq_2_2 GorSq_2_3"/>
    </vehicle>
    <vehicle id="bicycle85" type="bicycle_bicycle" depart="1351.00">
        <route edges="CheMe_1_1 TorPl_1_3 TorPl_1_4 MalSt_1_1"/>
    </vehicle>
    <vehicle id="bicycle86" type="bicycle_bicycle" depart="1382.00">
        <route edges="RidGa_2_1 TorPl_1_3 TorPl_1_4 BynPl_1_1 BynPl_1_2 BynPl_1_3 GorSq_2_3"/>
    </vehicle>
    <vehicle id="bicycle87" type="bicycle_bicycle" depart="1387.00">
        <route edges="HunSt_2_1 TorPl_1_2 TorPl_1_3 TorPl_1_4 BynPl_1_1 BynPl_1_2 BynPl_1_3 GorSq_2_3"/>
    </vehicle>
    <vehicle id="bicycle88" type="bicycle_bicycle" depart="1406.00">
        <route edges="HunSt_2_1 TorPl_1_2 TorPl_1_3 TorPl_2_2 TorPl_2_3 HunSt_1_2"/>
    </vehicle>
    <vehicle id="bicycle89" type="bicycle_bicycle" depart="1408.00">
        <route edges="TorPl_1_1 TorPl_1_2 TorPl_1_3 TorPl_1_4 MalSt_1_1"/>
    </vehicle>
    <vehicle id="bicycle90" type="bicycle_bicycle" depart="1429.00">
        <route edges="HunSt_1_1 TorPl_1_2 TorPl_1_3 GowSt_1_2"/>
    </vehicle>
    <vehicle id="bicycle91" type="bicycle_bicycle" depart="1439.00">
        <route edges="GorSq_2_1 GorSq_2_2 BynPl_2_1 BynPl_2_2 BynPl_2_3 TorPl_2_1 TorPl_2_2 TorPl_2_3 HunSt_1_2"/>
    </vehicle>
    <vehicle id="bicycle92" type="bicycle_bicycle" depart="1445.00">
        <route edges="GowSt_1_1 TorPl_2_2 TorPl_2_3 HunSt_1_2"/>
    </vehicle>
    <vehicle id="bicycle93" type="bicycle_bicycle" depart="1465.00">
        <route edges="CheMe_1_1 TorPl_1_3 TorPl_1_4 MalSt_1_1"/>
    </vehicle>
    <vehicle id="bicycle94" type="bicycle_bicycle" depart="1478.00">
        <route edges="HunSt_2_1 TorPl_1_2 TorPl_1_3 GowSt_1_2"/>
    </vehicle>
    <vehicle id="bicycle95" type="bicycle_bicycle" depart="1497.00">
        <route edges="CheMe_1_1 TorPl_1_3 TorPl_1_4 MalSt_1_1"/>
    </vehicle>
    <vehicle id="bicycle96" type="bicycle_bicycle" depart="1534.00">
        <route edges="MalSt_2_1 TorPl_2_1 GowSt_1_2"/>
    </vehicle>
    <vehicle id="bicycle97" type="bicycle_bicycle" depart="1553.00">
        <route edges="GowSt_1_1 TorPl_1_4 BynPl_1_1 BynPl_1_2 BynPl_1_3 GorSq_1_2 GorSq_1_3"/>
    </vehicle>
    <vehicle id="bicycle98" type="bicycle_bicycle" depart="1594.00">
        <route edges="CheMe_1_1 TorPl_1_3 TorPl_1_4 MalSt_1_1"/>
    </vehicle>
    <vehicle id="bicycle99" type="bicycle_bicycle" depart="1611.00">
        <route edges="GorSq_2_1 GorSq_2_2 BynPl_2_1 BynPl_2_2 BynPl_2_3 TorPl_2_1 GowSt_2_2"/>
    </vehicle>
    <vehicle id="bicycle100" type="bicycle_bicycle" depart="1696.00">
        <route edges="CheMe_1_1 TorPl_1_3 TorPl_1_4 BynPl_1_1 BynPl_1_2 BynPl_1_3 GorSq_1_2 GorSq_1_3"/>
    </vehicle>
    <vehicle id="bicycle101" type="bicycle_bicycle" depart="1702.00">
        <route edges="RidGa_2_1 TorPl_2_3 HunSt_1_2"/>
    </vehicle>
    <vehicle id="bicycle102" type="bicycle_bicycle" depart="1712.00">
        <route edges="CheMe_1_1 TorPl_1_3 TorPl_1_4 BynPl_1_1 BynPl_1_2 BynPl_1_3 GorSq_2_3"/>
    </vehicle>
    <vehicle id="bicycle103" type="bicycle_bicycle" depart="1719.00">
        <route edges="GorSq_2_1 GorSq_2_2 BynPl_2_1 BynPl_2_2 BynPl_2_3 MalSt_1_1"/>
    </vehicle>
    <vehicle id="bicycle104" type="bicycle_bicycle" depart="1722.00">
        <route edges="CheMe_1_1 TorPl_2_3 HunSt_1_2"/>
    </vehicle>
    <vehicle id="bicycle105" type="bicycle_bicycle" depart="1731.00">
        <route edges="GowSt_2_1 TorPl_1_4 BynPl_1_1 BynPl_1_2 BynPl_1_3 GorSq_2_3"/>
    </vehicle>
    <vehicle id="bicycle106" type="bicycle_bicycle" depart="1742.00">
        <route edges="RidGa_2_1 TorPl_1_3 GowSt_2_2"/>
    </vehicle>
    <vehicle id="bicycle107" type="bicycle_bicycle" depart="1756.00">
        <route edges="MalSt_2_1 TorPl_2_1 GowSt_2_2"/>
    </vehicle>
    <vehicle id="bicycle108" type="bicycle_bicycle" depart="1764.00">
        <route edges="CheMe_1_1 TorPl_2_3 HunSt_1_2"/>
    </vehicle>
    <vehicle id="bicycle109" type="bicycle_bicycle" depart="1765.00">
        <route edges="RidGa_2_1 TorPl_2_3 TorPl_2_4"/>
    </vehicle>
    <vehicle id="bicycle110" type="bicycle_bicycle" depart="1768.00">
        <route edges="MalSt_2_1 BynPl_1_1 BynPl_1_2 BynPl_1_3 GorSq_2_3"/>
    </vehicle>
    <vehicle id="bicycle111" type="bicycle_bicycle" depart="1774.00">
        <route edges="GowSt_2_1 TorPl_1_4 MalSt_1_1"/>
    </vehicle>
    <vehicle id="bicycle112" type="bicycle_bicycle" depart="1801.00">
        <route edges="HunSt_2_1 TorPl_1_2 TorPl_1_3 TorPl_1_4 BynPl_1_1 BynPl_1_2 BynPl_1_3 GorSq_2_3"/>
    </vehicle>
    <vehicle id="bicycle113" type="bicycle_bicycle" depart="1836.00">
        <route edges="GorSq_1_1 BynPl_2_1 BynPl_2_2 BynPl_2_3 BynPl_1_1 BynPl_1_2 BynPl_1_3 GorSq_2_3"/>
    </vehicle>
    <vehicle id="bicycle114" type="bicycle_bicycle" depart="1845.00">
        <route edges="GorSq_2_1 GorSq_2_2 GorSq_1_2 GorSq_1_3"/>
    </vehicle>
    <vehicle id="bicycle115" type="bicycle_bicycle" depart="1854.00">
        <route edges="GorSq_1_1 BynPl_2_1 BynPl_2_2 BynPl_2_3 TorPl_2_1 GowSt_2_2"/>
    </vehicle>
    <vehicle id="bicycle116" type="bicycle_bicycle" depart="1860.00">
        <route edges="GorSq_2_1 GorSq_2_2 GorSq_2_3"/>
    </vehicle>
    <vehicle id="bicycle117" type="bicycle_bicycle" depart="1872.00">
        <route edges="HunSt_1_1 TorPl_1_2 TorPl_1_3 TorPl_1_4 BynPl_1_1 BynPl_1_2 BynPl_1_3 GorSq_1_2 GorSq_1_3"/>
    </vehicle>
    <vehicle id="bicycle118" type="bicycle_bicycle" depart="1874.00">
        <route edges="GowSt_1_1 TorPl_2_2 TorPl_2_3 HunSt_1_2"/>
    </vehicle>
    <vehicle id="bicycle119" type="bicycle_bicycle" depart="1876.00">
        <route edges="CheMe_1_1 TorPl_1_3 TorPl_1_4 BynPl_1_1 BynPl_1_2 BynPl_1_3 GorSq_2_3"/>
    </vehicle>
    <vehicle id="bicycle120" type="bicycle_bicycle" depart="1892.00">
        <route edges="GowSt_2_1 TorPl_1_4 MalSt_1_1"/>
    </vehicle>
    <vehicle id="bicycle121" type="bicycle_bicycle" depart="1903.00">
        <route edges="MalSt_2_1 BynPl_1_1 BynPl_1_2 BynPl_1_3 GorSq_1_2 GorSq_1_3"/>
    </vehicle>
    <vehicle id="bicycle122" type="bicycle_bicycle" depart="1931.00">
        <route edges="TorPl_1_1 TorPl_1_2 TorPl_1_3 TorPl_1_4 MalSt_1_1"/>
    </vehicle>
    <vehicle id="bicycle123" type="bicycle_bicycle" depart="1990.00">
        <route edges="HunSt_1_1 TorPl_1_2 TorPl_1_3 GowSt_2_2"/>
    </vehicle>
    <vehicle id="bicycle124" type="bicycle_bicycle" depart="1994.00">
        <route edges="GorSq_2_1 GorSq_2_2 BynPl_2_1 BynPl_2_2 BynPl_2_3 TorPl_2_1 TorPl_2_2 TorPl_2_3 HunSt_1_2"/>
    </vehicle>
    <vehicle id="bicycle125" type="bicycle_bicycle" depart="2007.00">
        <route edges="RidGa_2_1 TorPl_2_3 TorPl_2_4"/>
    </vehicle>
    <vehicle id="bicycle126" type="bicycle_bicycle" depart="2021.00">
        <route edges="MalSt_2_1 TorPl_2_1 TorPl_2_2 TorPl_2_3 TorPl_2_4"/>
    </vehicle>
    <vehicle id="bicycle127" type="bicycle_bicycle" depart="2021.00">
        <route edges="HunSt_2_1 TorPl_1_2 TorPl_1_3 TorPl_1_4 BynPl_1_1 BynPl_1_2 BynPl_1_3 GorSq_1_2 GorSq_1_3"/>
    </vehicle>
    <vehicle id="bicycle128" type="bicycle_bicycle" depart="2040.00">
        <route edges="GorSq_2_1 GorSq_2_2 BynPl_2_1 BynPl_2_2 BynPl_2_3 TorPl_2_1 GowSt_1_2"/>
    </vehicle>
    <vehicle id="bicycle129" type="bicycle_bicycle" depart="2050.00">
        <route edges="GowSt_1_1 TorPl_2_2 TorPl_2_3 TorPl_2_4"/>
    </vehicle>
    <vehicle id="bicycle130" type="bicycle_bicycle" depart="2060.00">
        <route edges="HunSt_1_1 TorPl_1_2 TorPl_1_3 GowSt_2_2"/>
    </vehicle>
    <vehicle id="bicycle131" type="bicycle_bicycle" depart="2069.00">
        <route edges="GowSt_1_1 TorPl_1_4 BynPl_1_1 BynPl_1_2 BynPl_1_3 GorSq_2_3"/>
    </vehicle>
    <vehicle id="bicycle132" type="bicycle_bicycle" depart="2089.00">
        <route edges="GowSt_2_1 TorPl_1_4 BynPl_1_1 BynPl_1_2 BynPl_1_3 GorSq_2_3"/>
    </vehicle>
    <vehicle id="bicycle133" type="bicycle_bicycle" depart="2094.00">
        <route edges="CheMe_1_1 TorPl_1_3 TorPl_1_4 MalSt_1_1"/>
    </vehicle>
    <vehicle id="bicycle134" type="bicycle_bicycle" depart="2102.00">
        <route edges="GowSt_2_1 TorPl_1_4 BynPl_1_1 BynPl_1_2 BynPl_1_3 BynPl_2_1 BynPl_2_2 BynPl_2_3 TorPl_2_1 GowSt_1_2"/>
    </vehicle>
    <vehicle id="bicycle135" type="bicycle_bicycle" depart="2107.00">
        <route edges="TorPl_1_1 TorPl_1_2 TorPl_1_3 TorPl_1_4 BynPl_1_1 BynPl_1_2 BynPl_1_3 GorSq_2_3"/>
    </vehicle>
    <vehicle id="bicycle136" type="bicycle_bicycle" depart="2121.00">
        <route edges="MalSt_2_1 TorPl_2_1 GowSt_2_2"/>
    </vehicle>
    <vehicle id="bicycle137" type="bicycle_bicycle" depart="2127.00">
        <route edges="TorPl_1_1 TorPl_1_2 TorPl_1_3 TorPl_1_4 BynPl_1_1 BynPl_1_2 BynPl_1_3 GorSq_1_2 GorSq_1_3"/>
    </vehicle>
    <vehicle id="bicycle138" type="bicycle_bicycle" depart="2138.00">
        <route edges="GowSt_2_1 TorPl_2_2 TorPl_2_3 HunSt_1_2"/>
    </vehicle>
    <vehicle id="bicycle139" type="bicycle_bicycle" depart="2165.00">
        <route edges="GorSq_2_1 GorSq_2_2 BynPl_2_1 BynPl_2_2 BynPl_2_3 TorPl_2_1 TorPl_2_2 TorPl_2_3 TorPl_2_4"/>
    </vehicle>
    <vehicle id="bicycle140" type="bicycle_bicycle" depart="2166.00">
        <route edges="CheMe_1_1 TorPl_2_3 HunSt_1_2"/>
    </vehicle>
    <vehicle id="bicycle141" type="bicycle_bicycle" depart="2178.00">
        <route edges="GowSt_2_1 GowSt_2_2"/>
    </vehicle>
    <vehicle id="bicycle142" type="bicycle_bicycle" depart="2219.00">
        <route edges="CheMe_1_1 TorPl_1_3 TorPl_1_4 MalSt_1_1"/>
    </vehicle>
    <vehicle id="bicycle143" type="bicycle_bicycle" depart="2221.00">
        <route edges="CheMe_1_1 TorPl_1_3 TorPl_1_4 BynPl_1_1 BynPl_1_2 BynPl_1_3 GorSq_1_2 GorSq_1_3"/>
    </vehicle>
    <vehicle id="bicycle144" type="bicycle_bicycle" depart="2235.00">
        <route edges="HunSt_1_1 TorPl_1_2 TorPl_1_3 TorPl_1_4 MalSt_1_1"/>
    </vehicle>
    <vehicle id="bicycle145" type="bicycle_bicycle" depart="2259.00">
        <route edges="HunSt_2_1 TorPl_1_2 TorPl_1_3 TorPl_2_2 TorPl_2_3 HunSt_1_2"/>
    </vehicle>
    <vehicle id="bicycle146" type="bicycle_bicycle" depart="2262.00">
        <route edges="TorPl_1_1 TorPl_1_2 TorPl_1_3 TorPl_1_4 BynPl_1_1 BynPl_1_2 BynPl_1_3 GorSq_2_3"/>
    </vehicle>
    <vehicle id="bicycle147" type="bicycle_bicycle" depart="2275.00">
        <route edges="HunSt_2_1 TorPl_1_2 TorPl_1_3 TorPl_1_4 MalSt_1_1"/>
    </vehicle>
    <vehicle id="bicycle148" type="bicycle_bicycle" depart="2276.00">
        <route edges="GowSt_1_1 TorPl_1_4 BynPl_1_1 BynPl_1_2 BynPl_1_3 GorSq_2_3"/>
    </vehicle>
    <vehicle id="bicycle149" type="bicycle_bicycle" depart="2280.00">
        <route edges="GowSt_2_1 TorPl_1_4 MalSt_1_1"/>
    </vehicle>
    <vehicle id="bicycle150" type="bicycle_bicycle" depart="2293.00">
        <route edges="GorSq_2_1 GorSq_2_2 BynPl_2_1 BynPl_2_2 BynPl_2_3 TorPl_2_1 GowSt_1_2"/>
    </vehicle>
    <vehicle id="bicycle151" type="bicycle_bicycle" depart="2293.00">
        <route edges="CheMe_1_1 TorPl_2_3 TorPl_2_4"/>
    </vehicle>
    <vehicle id="bicycle152" type="bicycle_bicycle" depart="2299.00">
        <route edges="GorSq_2_1 GorSq_2_2 BynPl_2_1 BynPl_2_2 BynPl_2_3 MalSt_1_1"/>
    </vehicle>
    <vehicle id="bicycle153" type="bicycle_bicycle" depart="2332.00">
        <route edges="CheMe_1_1 TorPl_2_3 HunSt_1_2"/>
    </vehicle>
    <vehicle id="bicycle154" type="bicycle_bicycle" depart="2334.00">
        <route edges="RidGa_2_1 TorPl_2_3 TorPl_2_4"/>
    </vehicle>
    <vehicle id="bicycle155" type="bicycle_bicycle" depart="2344.00">
        <route edges="GorSq_2_1 GorSq_2_2 BynPl_2_1 BynPl_2_2 BynPl_2_3 MalSt_1_1"/>
    </vehicle>
    <vehicle id="bicycle156" type="bicycle_bicycle" depart="2355.00">
        <route edges="HunSt_1_1 HunSt_1_2"/>
    </vehicle>
    <vehicle id="bicycle157" type="bicycle_bicycle" depart="2374.00">
        <route edges="RidGa_2_1 TorPl_1_3 TorPl_1_4 BynPl_1_1 BynPl_1_2 BynPl_1_3 GorSq_2_3"/>
    </vehicle>
    <vehicle id="bicycle158" type="bicycle_bicycle" depart="2410.00">
        <route edges="HunSt_2_1 TorPl_1_2 TorPl_1_3 GowSt_2_2"/>
    </vehicle>
    <vehicle id="bicycle159" type="bicycle_bicycle" depart="2410.00">
        <route edges="GowSt_1_1 GowSt_1_2"/>
    </vehicle>
    <vehicle id="bicycle160" type="bicycle_bicycle" depart="2411.00">
        <route edges="GorSq_2_1 GorSq_2_2 BynPl_2_1 BynPl_2_2 BynPl_2_3 TorPl_2_1 TorPl_2_2 TorPl_2_3 TorPl_2_4"/>
    </vehicle>
    <vehicle id="bicycle161" type="bicycle_bicycle" depart="2456.00">
        <route edges="GowSt_1_1 GowSt_1_2"/>
    </vehicle>
    <vehicle id="bicycle162" type="bicycle_bicycle" depart="2460.00">
        <route edges="HunSt_2_1 TorPl_1_2 TorPl_1_3 GowSt_2_2"/>
    </vehicle>
    <vehicle id="bicycle163" type="bicycle_bicycle" depart="2470.00">
        <route edges="GowSt_1_1 TorPl_1_4 BynPl_1_1 BynPl_1_2 BynPl_1_3 GorSq_2_3"/>
    </vehicle>
    <vehicle id="bicycle164" type="bicycle_bicycle" depart="2475.00">
        <route edges="TorPl_1_1 TorPl_1_2 TorPl_1_3 GowSt_1_2"/>
    </vehicle>
    <vehicle id="bicycle165" type="bicycle_bicycle" depart="2479.00">
        <route edges="GorSq_1_1 GorSq_1_2 GorSq_1_3"/>
    </vehicle>
    <vehicle id="bicycle166" type="bicycle_bicycle" depart="2495.00">
        <route edges="CheMe_1_1 TorPl_2_3 HunSt_1_2"/>
    </vehicle>
    <vehicle id="bicycle167" type="bicycle_bicycle" depart="2510.00">
        <route edges="GorSq_2_1 GorSq_2_2 BynPl_2_1 BynPl_2_2 BynPl_2_3 TorPl_2_1 TorPl_2_2 TorPl_2_3 HunSt_1_2"/>
    </vehicle>
    <vehicle id="bicycle168" type="bicycle_bicycle" depart="2512.00">
        <route edges="MalSt_2_1 TorPl_2_1 GowSt_2_2"/>
    </vehicle>
    <vehicle id="bicycle169" type="bicycle_bicycle" depart="2521.00">
        <route edges="HunSt_1_1 TorPl_1_2 TorPl_1_3 GowSt_1_2"/>
    </vehicle>
    <vehicle id="bicycle170" type="bicycle_bicycle" depart="2522.00">
        <route edges="TorPl_1_1 TorPl_1_2 TorPl_1_3 TorPl_1_4 BynPl_1_1 BynPl_1_2 BynPl_1_3 GorSq_1_2 GorSq_1_3"/>
    </vehicle>
    <vehicle id="bicycle171" type="bicycle_bicycle" depart="2563.00">
        <route edges="HunSt_2_1 TorPl_1_2 TorPl_1_3 TorPl_2_2 TorPl_2_3 HunSt_1_2"/>
    </vehicle>
    <vehicle id="bicycle172" type="bicycle_bicycle" depart="2591.00">
        <route edges="MalSt_2_1 TorPl_2_1 GowSt_1_2"/>
    </vehicle>
    <vehicle id="bicycle173" type="bicycle_bicycle" depart="2597.00">
        <route edges="MalSt_2_1 TorPl_2_1 TorPl_2_2 TorPl_2_3 HunSt_1_2"/>
    </vehicle>
    <vehicle id="bicycle174" type="bicycle_bicycle" depart="2601.00">
        <route edges="GorSq_1_1 BynPl_2_1 BynPl_2_2 BynPl_2_3 TorPl_2_1 TorPl_2_2 TorPl_2_3 TorPl_2_4"/>
    </vehicle>
    <vehicle id="bicycle175" type="bicycle_bicycle" depart="2613.00">
        <route edges="TorPl_1_1 TorPl_1_2 TorPl_1_3 TorPl_2_2 TorPl_2_3 TorPl_2_4"/>
    </vehicle>
    <vehicle id="bicycle176" type="bicycle_bicycle" depart="2616.00">
        <route edges="GorSq_1_1 BynPl_2_1 BynPl_2_2 BynPl_2_3 TorPl_2_1 TorPl_2_2 TorPl_2_3 HunSt_1_2"/>
    </vehicle>
    <vehicle id="bicycle177" type="bicycle_bicycle" depart="2624.00">