<?xml version="1.0" encoding="UTF-8"?>

<!-- generated on 2025-11-24 09:30:00.549681 by randomTrips.py v1_24_0+0000-b72eb3fabc8
<configuration>
    <net-file value="../networks/demo/main.net.xml"/>
    <output-trip-file value="../routes/demo/bicycle.trips.xml"/>
    <route-file value="../routes/demo/bicycle.rou.xml"/>
    <prefix value="bicycle"/>
    <vehicle-class value="bicycle"/>
    <fringe-factor value="max"/>
    <seed value="140"/>
    <period value="10.0"/>
    <binomial value="100"/>
</configuration>
-->

<routes xmlns:xsi="http://www.w3.org/2001/XMLSchema-instance" xsi:noNamespaceSchemaLocation="http://sumo.dlr.de/xsd/routes_file.xsd">
    <vType id="bicycle_bicycle" vClass="bicycle"/>
    <trip id="bicycle0" depart="7.00" from="RidGa_2_1" to="GorSq_1_3" type="bicycle_bicycle"/>
    <trip id="bicycle1" depart="9.00" from="RidGa_2_1" to="TorPl_2_5" type="bicycle_bicycle"/>
    <trip id="bicycle2" depart="21.00" from="RidGa_2_1" to="GorSq_2_3" type="bicycle_bicycle"/>
    <trip id="bicycle3" depart="24.00" from="MalSt_2_1" to="TorPl_2_5" type="bicycle_bicycle"/>
    <trip id="bicycle4" depart="45.00" from="GorSq_1_1" to="GowSt_2_3" type="bicycle_bicycle"/>
    <trip id="bicycle5" depart="53.00" from="HunSt_2_1" to="TorPl_2_5" type="bicycle_bicycle"/>
    <trip id="bicycle6" depart="87.00" from="CheMe_1_1" to="HunSt_1_2" type="bicycle_bicycle"/>
    <trip id="bicycle7" depart="88.00" from="CheMe_1_1" to="HunSt_1_2" type="bicycle_bicycle"/>
    <trip id="bicycle8" depart="97.00" from="GowSt_1_1" to="HunSt_1_2" type="bicycle_bicycle"/>
    <trip id="bicycle9" depart="115.00" from="GorSq_1_1" to="HunSt_1_2" type="bicycle_bicycle"/>
    <trip id="bicycle10" depart="117.00" from="HunSt_1_1" to="GorSq_2_3" type="bicycle_bicycle"/>
    <trip id="bicycle11" depart="137.00" from="RidGa_2_1" to="GowSt_2_3" type="bicycle_bicycle"/>
    <trip id="bicycle12" depart="150.00" from="HunSt_2_1" to="TorPl_2_5" type="bicycle_bicycle"/>
    <trip id="bicycle13" depart="152.00" from="CheMe_1_1" to="MalSt_1_1" type="bicycle_bicycle"/>
    <trip id="bicycle14" depart="155.00" from="GowSt_1_1" to="HunSt_1_2" type="bicycle_bicycle"/>
    <trip id="bicycle15" depart="162.00" from="CheMe_1_1" to="GowSt_2_3" type="bicycle_bicycle"/>
    <trip id="bicycle16" depart="174.00" from="GowSt_2_1" to="MalSt_1_1" type="bicycle_bicycle"/>
    <trip id="bicycle17" depart="178.00" from="GowSt_1_1" to="GowSt_1_3" type="bicycle_bicycle"/>
    <trip id="bicycle18" depart="199.00" from="GowSt_2_1" to="GowSt_2_3" type="bicycle_bicycle"/>
    <trip id="bicycle19" depart="205.00" from="HunSt_1_1" to="MalSt_1_1" type="bicycle_bicycle"/>
    <trip id="bicycle20" depart="210.00" from="GorSq_2_1" to="MalSt_1_1" type="bicycle_bicycle"/>
    <trip id="bicycle21" depart="215.00" from="GorSq_2_1" to="TorPl_2_5" type="bicycle_bicycle"/>
    <trip id="bicycle22" depart="219.00" from="GowSt_1_1" to="GorSq_1_3" type="bicycle_bicycle"/>
    <trip id="bicycle23" depart="225.00" from="MalSt_2_1" to="HunSt_1_2" type="bicycle_bicycle"/>
    <trip id="bicycle24" depart="233.00" from="GorSq_2_1" to="GowSt_2_3" type="bicycle_bicycle"/>
    <trip id="bicycle25" depart="258.00" from="CheMe_1_1" to="GowSt_1_3" type="bicycle_bicycle"/>
    <trip id="bicycle26" depart="260.00" from="MalSt_2_1" to="GowSt_1_3" type="bicycle_bicycle"/>
    <trip id="bicycle27" depart="268.00" from="MalSt_2_1" to="TorPl_2_5" type="bicycle_bicycle"/>
    <trip id="bicycle28" depart="272.00" from="HunSt_1_1" to="TorPl_2_5" type="bicycle_bicycle"/>
    <trip id="bicycle29" depart="275.00" from="HunSt_1_1" to="GowSt_2_3" type="bicycle_bicycle"/>
    <trip id="bicycle30" depart="287.00" from="TorPl_1_1" to="MalSt_1_1" type="bicycle_bicycle"/>
    <trip id="bicycle31" depart="306.00" from="GowSt_1_1" to="HunSt_1_2" type="bicycle_bicycle"/>
    <trip id="bicycle32" depart="321.00" from="GorSq_2_1" to="GowSt_1_3" type="bicycle_bicycle"/>
    <trip id="bicycle33" depart="325.00" from="MalSt_2_1" to="GorSq_1_3" type="bicycle_bicycle"/>
    <trip id="bicycle34" depart="327.00" from="MalSt_2_1" to="GorSq_1_3" type="bicycle_bicycle"/>
    <trip id="bicycle35" depart="336.00" from="RidGa_2_1" to="HunSt_1_2" type="bicycle_bicycle"/>
    <trip id="bicycle36" depart="351.00" from="GowSt_2_1" to="GowSt_2_3" type="bicycle_bicycle"/>
    <trip id="bicycle37" depart="364.00" from="RidGa_2_1" to="GowSt_1_3" type="bicycle_bicycle"/>
    <trip id="bicycle38" depart="367.00" from="GorSq_2_1" to="GowSt_1_3" type="bicycle_bicycle"/>
    <trip id="bicycle39" depart="368.00" from="MalSt_2_1" to="GorSq_1_3" type="bicycle_bicycle"/>
    <trip id="bicycle40" depart="371.00" from="GowSt_1_1" to="GorSq_1_3" type="bicycle_bicycle"/>
    <trip id="bicycle41" depart="373.00" from="HunSt_2_1" to="MalSt_1_1" type="bicycle_bicycle"/>
    <trip id="bicycle42" depart="385.00" from="HunSt_2_1" to="MalSt_1_1" type="bicycle_bicycle"/>
    <trip id="bicycle43" depart="399.00" from="GorSq_2_1" to="GowSt_1_3" type="bicycle_bicycle"/>
    <trip id="bicycle44" depart="406.00" from="GowSt_2_1" to="GowSt_2_3" type="bicycle_bicycle"/>
    <trip id="bicycle45" depart="410.00" from="GowSt_2_1" to="HunSt_1_2" type="bicycle_bicycle"/>
    <trip id="bicycle46" depart="423.00" from="GowSt_1_1" to="GowSt_2_3" type="bicycle_bicycle"/>
    <trip id="bicycle47" depart="432.00" from="GorSq_1_1" to="TorPl_2_5" type="bicycle_bicycle"/>
    <trip id="bicycle48" depart="463.00" from="TorPl_1_1" to="HunSt_1_2" type="bicycle_bicycle"/>
    <trip id="bicycle49" depart="463.00" from="GorSq_2_1" to="GorSq_1_3" type="bicycle_bicycle"/>
    <trip id="bicycle50" depart="480.00" from="GowSt_1_1" to="GowSt_1_3" type="bicycle_bicycle"/>
    <trip id="bicycle51" depart="481.00" from="RidGa_2_1" to="TorPl_2_5" type="bicycle_bicycle"/>
    <trip id="bicycle52" depart="494.00" from="GorSq_2_1" to="GowSt_1_3" type="bicycle_bicycle"/>
    <trip id="bicycle53" depart="495.00" from="HunSt_1_1" to="MalSt_1_1" type="bicycle_bicycle"/>
    <trip id="bicycle54" depart="498.00" from="HunSt_2_1" to="GowSt_1_3" type="bicycle_bicycle"/>
    <trip id="bicycle55" depart="498.00" from="GowSt_1_1" to="GorSq_2_3" type="bicycle_bicycle"/>
    <trip id="bicycle56" depart="509.00" from="GowSt_1_1" to="GowSt_2_3" type="bicycle_bicycle"/>
    <trip id="bicycle57" depart="515.00" from="MalSt_2_1" to="HunSt_1_2" type="bicycle_bicycle"/>
    <trip id="bicycle58" depart="520.00" from="GorSq_1_1" to="GowSt_1_3" type="bicycle_bicycle"/>
    <trip id="bicycle59" depart="531.00" from="GowSt_2_1" to="GorSq_2_3" type="bicycle_bicycle"/>
    <trip id="bicycle60" depart="539.00" from="HunSt_2_1" to="TorPl_2_5" type="bicycle_bicycle"/>
    <trip id="bicycle61" depart="558.00" from="CheMe_1_1" to="HunSt_1_2" type="bicycle_bicycle"/>
    <trip id="bicycle62" depart="571.00" from="TorPl_1_1" to="GowSt_1_3" type="bicycle_bicycle"/>
    <trip id="bicycle63" depart="579.00" from="RidGa_2_1" to="MalSt_1_1" type="bicycle_bicycle"/>
    <trip id="bicycle64" depart="583.00" from="GowSt_2_1" to="GorSq_2_3" type="bicycle_bicycle"/>
    <trip id="bicycle65" depart="588.00" from="HunSt_2_1" to="GowSt_1_3" type="bicycle_bicycle"/>
    <trip id="bicycle66" depart="594.00" from="GorSq_1_1" to="HunSt_1_2" type="bicycle_bicycle"/>
    <trip id="bicycle67" depart="598.00" from="RidGa_2_1" to="TorPl_2_5" type="bicycle_bicycle"/>
    <trip id="bicycle68" depart="602.00" from="HunSt_2_1" to="GowSt_1_3" type="bicycle_bicycle"/>
    <trip id="bicycle69" depart="603.00" from="RidGa_2_1" to="GowSt_1_3" type="bicycle_bicycle"/>
    <trip id="bicycle70" depart="605.00" from="HunSt_2_1" to="GorSq_1_3" type="bicycle_bicycle"/>
    <trip id="bicycle71" depart="607.00" from="GorSq_2_1" to="MalSt_1_1" type="bicycle_bicycle"/>
    <trip id="bicycle72" depart="608.00" from="TorPl_1_1" to="GowSt_2_3" type="bicycle_bicycle"/>
    <trip id="bicycle73" depart="611.00" from="GorSq_2_1" to="GorSq_2_3" type="bicycle_bicycle"/>
    <trip id="bicycle74" depart="612.00" from="TorPl_1_1" to="GowSt_2_3" type="bicycle_bicycle"/>
    <trip id="bicycle75" depart="618.00" from="GowSt_1_1" to="GowSt_2_3" type="bicycle_bicycle"/>
    <trip id="bicycle76" depart="620.00" from="GorSq_2_1" to="GorSq_2_3" type="bicycle_bicycle"/>
    <trip id="bicycle77" depart="624.00" from="TorPl_1_1" to="MalSt_1_1" type="bicycle_bicycle"/>
    <trip id="bicycle78" depart="641.00" from="CheMe_1_1" to="MalSt_1_1" type="bicycle_bicycle"/>
    <trip id="bicycle79" depart="658.00" from="GorSq_1_1" to="GowSt_1_3" type="bicycle_bicycle"/>
    <trip id="bicycle80" depart="668.00" from="HunSt_2_1" to="TorPl_2_5" type="bicycle_bicycle"/>
    <trip id="bicycle81" depart="685.00" from="RidGa_2_1" to="TorPl_2_5" type="bicycle_bicycle"/>
    <trip id="bicycle82" depart="687.00" from="GowSt_1_1" to="HunSt_1_2" type="bicycle_bicycle"/>
    <trip id="bicycle83" depart="695.00" from="HunSt_1_1" to="GowSt_1_3" type="bicycle_bicycle"/>
    <trip id="bicycle84" depart="705.00" from="CheMe_1_1" to="HunSt_1_2" type="bicycle_bicycle"/>
    <trip id="bicycle85" depart="712.00" from="MalSt_2_1" to="MalSt_1_1" type="bicycle_bicycle"/>
    <trip id="bicycle86" depart="714.00" from="GorSq_1_1" to="GorSq_2_3" type="bicycle_bicycle"/>
    <trip id="bicycle87" depart="718.00" from="GorSq_2_1" to="GorSq_2_3" type="bicycle_bicycle"/>
    <trip id="bicycle88" depart="720.00" from="HunSt_2_1" to="GorSq_2_3" type="bicycle_bicycle"/>
    <trip id="bicycle89" depart="725.00" from="GorSq_1_1" to="MalSt_1_1" type="bicycle_bicycle"/>
    <trip id="bicycle90" depart="727.00" from="RidGa_2_1" to="MalSt_1_1" type="bicycle_bicycle"/>
    <trip id="bicycle91" depart="739.00" from="HunSt_2_1" to="TorPl_2_5" type="bicycle_bicycle"/>
    <trip id="bicycle92" depart="741.00" from="GowSt_1_1" to="HunSt_1_2" type="bicycle_bicycle"/>
    <trip id="bicycle93" depart="748.00" from="GorSq_1_1" to="GorSq_1_3" type="bicycle_bicycle"/>
    <trip id="bicycle94" depart="764.00" from="GowSt_1_1" to="GorSq_2_3" type="bicycle_bicycle"/>
    <trip id="bicycle95" depart="765.00" from="HunSt_1_1" to="GorSq_2_3" type="bicycle_bicycle"/>
    <trip id="bicycle96" depart="775.00" from="RidGa_2_1" to="TorPl_2_5" type="bicycle_bicycle"/>
    <trip id="bicycle97" depart="779.00" from="HunSt_1_1" to="GowSt_1_3" type="bicycle_bicycle"/>
    <trip id="bicycle98" depart="785.00" from="CheMe_1_1" to="HunSt_1_2" type="bicycle_bicycle"/>
    <trip id="bicycle99" depart="786.00" from="CheMe_1_1" to="TorPl_2_5" type="bicycle_bicycle"/>
    <trip id="bicycle100" depart="792.00" from="GowSt_2_1" to="GowSt_2_3" type="bicycle_bicycle"/>
    <trip id="bicycle101" depart="792.00" from="HunSt_1_1" to="GorSq_2_3" type="bicycle_bicycle"/>
    <trip id="bicycle102" depart="795.00" from="GorSq_1_1" to="GorSq_2_3" type="bicycle_bicycle"/>
    <trip id="bicycle103" depart="821.00" from="GowSt_1_1" to="HunSt_1_2" type="bicycle_bicycle"/>
    <trip id="bicycle104" depart="829.00" from="GowSt_1_1" to="GorSq_2_3" type="bicycle_bicycle"/>
    <trip id="bicycle105" depart="830.00" from="TorPl_1_1" to="TorPl_2_5" type="bicycle_bicycle"/>
    <trip id="bicycle106" depart="832.00" from="HunSt_1_1" to="GorSq_1_3" type="bicycle_bicycle"/>
    <trip id="bicycle107" depart="847.00" from="HunSt_1_1" to="GorSq_1_3" type="bicycle_bicycle"/>
    <trip id="bicycle108" depart="851.00" from="TorPl_1_1" to="GowSt_2_3" type="bicycle_bicycle"/>
    <trip id="bicycle109" depart="854.00" from="MalSt_2_1" to="MalSt_1_1" type="bicycle_bicycle"/>
    <trip id="bicycle110" depart="872.00" from="RidGa_2_1" to="GowSt_2_3" type="bicycle_bicycle"/>
    <trip id="bicycle111" depart="874.00" from="HunSt_2_1" to="GowSt_1_3" type="bicycle_bicycle"/>
    <trip id="bicycle112" depart="880.00" from="RidGa_2_1" to="GowSt_1_3" type="bicycle_bicycle"/>
    <trip id="bicycle113" depart="893.00" from="MalSt_2_1" to="TorPl_2_5" type="bicycle_bicycle"/>
    <trip id="bicycle114" depart="898.00" from="CheMe_1_1" to="GowSt_1_3" type="bicycle_bicycle"/>
    <trip id="bicycle115" depart="904.00" from="TorPl_1_1" to="HunSt_1_2" type="bicycle_bicycle"/>
    <trip id="bicycle116" depart="906.00" from="HunSt_2_1" to="GorSq_2_3" type="bicycle_bicycle"/>
    <trip id="bicycle117" depart="928.00" from="CheMe_1_1" to="GorSq_2_3" type="bicycle_bicycle"/>
    <trip id="bicycle118" depart="948.00" from="GowSt_2_1" to="HunSt_1_2" type="bicycle_bicycle"/>
    <trip id="bicycle119" depart="951.00" from="GowSt_2_1" to="MalSt_1_1" type="bicycle_bicycle"/>
    <trip id="bicycle120" depart="954.00" from="GorSq_2_1" to="HunSt_1_2" type="bicycle_bicycle"/>
    <trip id="bicycle121" depart="960.00" from="CheMe_1_1" to="GorSq_1_3" type="bicycle_bicycle"/>
    <trip id="bicycle122" depart="967.00" from="GorSq_2_1" to="GorSq_2_3" type="bicycle_bicycle"/>
    <trip id="bicycle123" depart="975.00" from="MalSt_2_1" to="GowSt_2_3" type="bicycle_bicycle"/>
    <trip id="bicycle124" depart="981.00" from="GowSt_2_1" to="TorPl_2_5" type="bicycle_bicycle"/>
    <trip id="bicycle125" depart="991.00" from="GowSt_2_1" to="GorSq_2_3" type="bicycle_bicycle"/>
    <trip id="bicycle126" depart="996.00" from="HunSt_2_1" to="HunSt_1_2" type="bicycle_bicycle"/>
    <trip id="bicycle127" depart="1001.00" from="GorSq_1_1" to="HunSt_1_2" type="bicycle_bicycle"/>
    <trip id="bicycle128" depart="1003.00" from="TorPl_1_1" to="GowSt_2_3" type="bicycle_bicycle"/>
    <trip id="bicycle129" depart="1005.00" from="GowSt_2_1" to="GowSt_2_3" type="bicycle_bicycle"/>
    <trip id="bicycle130" depart="1005.00" from="RidGa_2_1" to="GorSq_2_3" type="bicycle_bicycle"/>
    <trip id="bicycle131" depart="1006.00" from="MalSt_2_1" to="HunSt_1_2" type="bicycle_bicycle"/>
    <trip id="bicycle132" depart="1010.00" from="TorPl_1_1" to="HunSt_1_2" type="bicycle_bicycle"/>
    <trip id="bicycle133" depart="1012.00" from="GorSq_1_1" to="HunSt_1_2" type="bicycle_bicycle"/>
    <trip id="bicycle134" depart="1065.00" from="RidGa_2_1" to="GowSt_2_3" type="bicycle_bicycle"/>
    <trip id="bicycle135" depart="1091.00" from="GorSq_2_1" to="GowSt_2_3" type="bicycle_bicycle"/>
    <trip id="bicycle136" depart="1104.00" from="TorPl_1_1" to="GorSq_2_3" type="bicycle_bicycle"/>
    <trip id="bicycle137" depart="1116.00" from="RidGa_2_1" to="MalSt_1_1" type="bicycle_bicycle"/>
    <trip id="bicycle138" depart="1159.00" from="MalSt_2_1" to="TorPl_2_5" type="bicycle_bicycle"/>
    <trip id="bicycle139" depart="1171.00" from="CheMe_1_1" to="GowSt_1_3" type="bicycle_bicycle"/>
    <trip id="bicycle140" depart="1177.00" from="HunSt_2_1" to="TorPl_2_5" type="bicycle_bicycle"/>
    <trip id="bicycle141" depart="1209.00" from="TorPl_1_1" to="GowSt_1_3" type="bicycle_bicycle"/>
    <trip id="bicycle142" depart="1220.00" from="HunSt_1_1" to="HunSt_1_2" type="bicycle_bicycle"/>
    <trip id="bicycle143" depart="1220.00" from="HunSt_1_1" to="HunSt_1_2" type="bicycle_bicycle"/>
    <trip id="bicycle144" depart="1257.00" from="HunSt_2_1" to="GowSt_1_3" type="bicycle_bicycle"/>
    <trip id="bicycle145" depart="1258.00" from="RidGa_2_1" to="HunSt_1_2" type="bicycle_bicycle"/>
    <trip id="bicycle146" depart="1266.00" from="MalSt_2_1" to="GowSt_1_3" type="bicycle_bicycle"/>
    <trip id="bicycle147" depart="1267.00" from="CheMe_1_1" to="MalSt_1_1" type="bicycle_bicycle"/>
    <trip id="bicycle148" depart="1272.00" from="RidGa_2_1" to="GorSq_1_3" type="bicycle_bicycle"/>
    <trip id="bicycle149" depart="1277.00" from="GowSt_2_1" to="GorSq_1_3" type="bicycle_bicycle"/>
    <trip id="bicycle150" depart="1290.00" from="HunSt_2_1" to="GorSq_1_3" type="bicycle_bicycle"/>
    <trip id="bicycle151" depart="1290.00" from="RidGa_2_1" to="GowSt_2_3" type="bicycle_bicycle"/>
    <trip id="bicycle152" depart="1292.00" from="MalSt_2_1" to="GowSt_1_3" type="bicycle_bicycle"/>
    <trip id="bicycle153" depart="1295.00" from="GorSq_1_1" to="GowSt_2_3" type="bicycle_bicycle"/>
    <trip id="bicycle154" depart="1300.00" from="MalSt_2_1" to="GowSt_2_3" type="bicycle_bicycle"/>
    <trip id="bicycle155" depart="1302.00" from="TorPl_1_1" to="TorPl_2_5" type="bicycle_bicycle"/>
    <trip id="bicycle156" depart="1305.00" from="HunSt_1_1" to="GowSt_1_3" type="bicycle_bicycle"/>
    <trip id="bicycle157" depart="1331.00" from="MalSt_2_1" to="GorSq_1_3" type="bicycle_bicycle"/>
    <trip id="bicycle158" depart="1332.00" from="MalSt_2_1" to="GowSt_2_3" type="bicycle_bicycle"/>
    <trip id="bicycle159" depart="1335.00" from="RidGa_2_1" to="GowSt_1_3" type="bicycle_bicycle"/>
    <trip id="bicycle160" depart="1345.00" from="CheMe_1_1" to="GowSt_1_3" type="bicycle_bicycle"/>
    <trip id="bicycle161" depart="1351.00" from="GowSt_2_1" to="HunSt_1_2" type="bicycle_bicycle"/>
    <trip id="bicycle162" depart="1351.00" from="HunSt_1_1" to="GorSq_1_3" type="bicycle_bicycle"/>
    <trip id="bicycle163" depart="1357.00" from="GorSq_2_1" to="GorSq_2_3" type="bicycle_bicycle"/>
    <trip id="bicycle164" depart="1363.00" from="CheMe_1_1" to="GorSq_2_3" type="bicycle_bicycle"/>
    <trip id="bicycle165" depart="1383.00" from="GorSq_1_1" to="GowSt_2_3" type="bicycle_bicycle"/>
    <trip id="bicycle166" depart="1392.00" from="MalSt_2_1" to="GorSq_1_3" type="bicycle_bicycle"/>
    <trip id="bicycle167" depart="1392.00" from="HunSt_1_1" to="GowSt_2_3" type="bicycle_bicycle"/>
    <trip id="bicycle168" depart="1402.00" from="HunSt_2_1" to="GorSq_2_3" type="bicycle_bicycle"/>
    <trip id="bicycle169" depart="1424.00" from="HunSt_2_1" to="TorPl_2_5" type="bicycle_bicycle"/>
    <trip id="bicycle170" depart="1440.00" from="GorSq_1_1" to="GorSq_2_3" type="bicycle_bicycle"/>
    <trip id="bicycle171" depart="1445.00" from="GowSt_1_1" to="MalSt_1_1" type="bicycle_bicycle"/>
    <trip id="bicycle172" depart="1451.00" from="HunSt_1_1" to="HunSt_1_2" type="bicycle_bicycle"/>
    <trip id="bicycle173" depart="1457.00" from="GorSq_2_1" to="GowSt_2_3" type="bicycle_bicycle"/>
    <trip id="bicycle174" depart="1468.00" from="HunSt_1_1" to="GorSq_1_3" type="bicycle_bicycle"/>
    <trip id="bicycle175" depart="1478.00" from="MalSt_2_1" to="GowSt_2_3" type="bicycle_bicycle"/>
    <trip id="bicycle176" depart="1494.00" from="TorPl_1_1" to="HunSt_1_2" type="bicycle_bicycle"/>
    <trip id="bicycle177" depart="1506.00" from="GorSq_1_1" to="GowSt_1_3" type="bicycle_bicycle"/>
    <trip id="bicycle178" depart="1508.00" from="GowSt_2_1" to="GorSq_2_3" type="bicycle_bicycle"/>
    <trip id="bicycle179" depart="1531.00" from="GorSq_2_1" to="GorSq_1_3" type="bicycle_bicycle"/>
    <trip id="bicycle180" depart="1554.00" from="GowSt_1_1" to="GowSt_1_3" type="bicycle_bicycle"/>
    <trip id="bicycle181" depart="1557.00" from="GorSq_1_1" to="GorSq_1_3" type="bicycle_bicycle"/>
    <trip id="bicycle182" depart="1565.00" from="GorSq_1_1" to="GowSt_1_3" type="bicycle_bicycle"/>
    <trip id="bicycle183" depart="1569.00" from="HunSt_2_1" to="TorPl_2_5" type="bicycle_bicycle"/>
    <trip id="bicycle184" depart="1572.00" from="CheMe_1_1" to="HunSt_1_2" type="bicycle_bicycle"/>
    <trip id="bicycle185" depart="1576.00" from="GorSq_2_1" to="GorSq_2_3" type="bicycle_bicycle"/>
    <trip id="bicycle186" depart="1587.00" from="RidGa_2_1" to="GorSq_1_3" type="bicycle_bicycle"/>
    <trip id="bicycle187" depart="1596.00" from="MalSt_2_1" to="GorSq_2_3" type="bicycle_bicycle"/>
    <trip id="bicycle188" depart="1612.00" from="TorPl_1_1" to="GorSq_2_3" type="bicycle_bicycle"/>
    <trip id="bicycle189" depart="1623.00" from="CheMe_1_1" to="MalSt_1_1" type="bicycle_bicycle"/>
    <trip id="bicycle190" depart="1641.00" from="CheMe_1_1" to="GowSt_1_3" type="bicycle_bicycle"/>
    <trip id="bicycle191" depart="1653.00" from="MalSt_2_1" to="GowSt_2_3" type="bicycle_bicycle"/>
    <trip id="bicycle192" depart="1665.00" from="GorSq_1_1" to="GowSt_1_3" type="bicycle_bicycle"/>
    <trip id="bicycle193" depart="1675.00" from="CheMe_1_1" to="MalSt_1_1" type="bicycle_bicycle"/>
    <trip id="bicycle194" depart="1687.00" from="TorPl_1_1" to="GorSq_2_3" type="bicycle_bicycle"/>
    <trip id="bicycle195" depart="1710.00" from="MalSt_2_1" to="TorPl_2_5" type="bicycle_bicycle"/>
    <trip id="bicycle196" depart="1717.00" from="GorSq_1_1" to="GorSq_2_3" type="bicycle_bicycle"/>
    <trip id="bicycle197" depart="1731.00" from="HunSt_1_1" to="GowSt_2_3" type="bicycle_bicycle"/>
    <trip id="bicycle198" depart="1733.00" from="GorSq_2_1" to="TorPl_2_5" type="bicycle_bicycle"/>
    <trip id="bicycle199" depart="1734.00" from="TorPl_1_1" to="GorSq_1_3" type="bicycle_bicycle"/>
    <trip id="bicycle200" depart="1749.00" from="HunSt_2_1" to="TorPl_2_5" type="bicycle_bicycle"/>
    <trip id="bicycle201" depart="1751.00" from="HunSt_2_1" to="GorSq_2_3" type="bicycle_bicycle"/>
    <trip id="bicycle202" depart="1792.00" from="MalSt_2_1" to="HunSt_1_2" type="bicycle_bicycle"/>
    <trip id="bicycle203" depart="1814.00" from="CheMe_1_1" to="GorSq_2_3" type="bicycle_bicycle"/>
    <trip id="bicycle204" depart="1814.00" from="GowSt_1_1" to="MalSt_1_1" type="bicycle_bicycle"/>
    <trip id="bicycle205" depart="1830.00" from="TorPl_1_1" to="GowSt_1_3" type="bicycle_bicycle"/>
    <trip id="bicycle206" depart="1836.00" from="RidGa_2_1" to="GorSq_2_3" type="bicycle_bicycle"/>
    <trip id="bicycle207" depart="1858.00" from="MalSt_2_1" to="TorPl_2_5" type="bicycle_bicycle"/>
    <trip id="bicycle208" depart="1867.00" from="RidGa_2_1" to="MalSt_1_1" type="bicycle_bicycle"/>
    <trip id="bicycle209" depart="1882.00" from="TorPl_1_1" to="GowSt_2_3" type="bicycle_bicycle"/>
    <trip id="bicycle210" depart="1885.00" from="GowSt_2_1" to="MalSt_1_1" type="bicycle_bicycle"/>
    <trip id="bicycle211" depart="1887.00" from="GowSt_2_1" to="GorSq_1_3" type="bicycle_bicycle"/>
    <trip id="bicycle212" depart="1893.00" from="GorSq_1_1" to="GorSq_1_3" type="bicycle_bicycle"/>
    <trip id="bicycle213" depart="1897.00" from="MalSt_2_1" to="HunSt_1_2" type="bicycle_bicycle"/>
    <trip id="bicycle214" depart="1905.00" from="GowSt_1_1" to="GorSq_1_3" type="bicycle_bicycle"/>
    <trip id="bicycle215" depart="1909.00" from="TorPl_1_1" to="GorSq_2_3" type="bicycle_bicycle"/>
    <trip id="bicycle216" depart="1910.00" from="GowSt_1_1" to="GorSq_2_3" type="bicycle_bicycle"/>
    <trip id="bicycle217" depart="1921.00" from="HunSt_2_1" to="GowSt_2_3" type="bicycle_bicycle"/>
    <trip id="bicycle218" depart="1922.00" from="MalSt_2_1" to="GowSt_1_3" type="bicycle_bicycle"/>
    <trip id="bicycle219" depart="1924.00" from="GowSt_1_1" to="TorPl_2_5" type="bicycle_bicycle"/>
    <trip id="bicycle220" depart="1928.00" from="TorPl_1_1" to="GorSq_1_3" type="bicycle_bicycle"/>
    <trip id="bicycle221" depart="1930.00" from="GowSt_1_1" to="HunSt_1_2" type="bicycle_bicycle"/>
    <trip id="bicycle222" depart="1944.00" from="MalSt_2_1" to="GorSq_2_3" type="bicycle_bicycle"/>
    <trip id="bicycle223" depart="1945.00" from="GowSt_2_1" to="GorSq_2_3" type="bicycle_bicycle"/>
    <trip id="bicycle224" depart="1946.00" from="RidGa_2_1" to="GorSq_1_3" type="bicycle_bicycle"/>
    <trip id="bicycle225" depart="1950.00" from="HunSt_2_1" to="HunSt_1_2" type="bicycle_bicycle"/>
    <trip id="bicycle226" depart="1951.00" from="MalSt_2_1" to="GowSt_2_3" type="bicycle_bicycle"/>
    <trip id="bicycle227" depart="1953.00" from="CheMe_1_1" to="GorSq_1_3" type="bicycle_bicycle"/>
    <trip id="bicycle228" depart="1958.00" from="GorSq_1_1" to="GorSq_2_3" type="bicycle_bicycle"/>
    <trip id="bicycle229" depart="1964.00" from="HunSt_1_1" to="GowSt_2_3" type="bicycle_bicycle"/>
    <trip id="bicycle230" depart="1970.00" from="TorPl_1_1" to="GorSq_2_3" type="bicycle_bicycle"/>
    <trip id="bicycle231" depart="1977.00" from="CheMe_1_1" to="MalSt_1_1" type="bicycle_bicycle"/>
    <trip id="bicycle232" depart="1983.00" from="MalSt_2_1" to="MalSt_1_1" type="bicycle_bicycle"/>
    <trip id="bicycle233" depart="1990.00" from="RidGa_2_1" to="GowSt_2_3" type="bicycle_bicycle"/>
    <trip id="bicycle234" depart="2055.00" from="CheMe_1_1" to="MalSt_1_1" type="bicycle_bicycle"/>
    <trip id="bicycle235" depart="2061.00" from="HunSt_1_1" to="GorSq_1_3" type="bicycle_bicycle"/>
    <trip id="bicycle236" depart="2061.00" from="GowSt_1_1" to="GorSq_1_3" type="bicycle_bicycle"/>
    <trip id="bicycle237" depart="2073.00" from="GorSq_2_1" to="TorPl_2_5" type="bicycle_bicycle"/>
    <trip id="bicycle238" depart="2082.00" from="CheMe_1_1" to="MalSt_1_1" type="bicycle_bicycle"/>
    <trip id="bicycle239" depart="2089.00" from="HunSt_1_1" to="GowSt_2_3" type="bicycle_bicycle"/>
    <trip id="bicycle240" depart="2098.00" from="GorSq_1_1" to="GorSq_2_3" type="bicycle_bicycle"/>
    <trip id="bicycle241" depart="2112.00" from="TorPl_1_1" to="GowSt_1_3" type="bicycle_bicycle"/>
    <trip id="bicycle242" depart="2117.00" from="GowSt_1_1" to="MalSt_1_1" type="bicycle_bicycle"/>
    <trip id="bicycle243" depart="2135.00" from="CheMe_1_1" to="HunSt_1_2" type="bicycle_bicycle"/>
    <trip id="bicycle244" depart="2137.00" from="GorSq_1_1" to="GorSq_1_3" type="bicycle_bicycle"/>
    <trip id="bicycle245" depart="2142.00" from="MalSt_2_1" to="GorSq_1_3" type="bicycle_bicycle"/>
    <trip id="bicycle246" depart="2143.00" from="RidGa_2_1" to="HunSt_1_2" type="bicycle_bicycle"/>
    <trip id="bicycle247" depart="2146.00" from="TorPl_1_1" to="GorSq_2_3" type="bicycle_bicycle"/>
    <trip id="bicycle248" depart="2147.00" from="GorSq_2_1" to="GowSt_2_3" type="bicycle_bicycle"/>
    <trip id="bicycle249" depart="2148.00" from="HunSt_1_1" to="GorSq_1_3" type="bicycle_bicycle"/>
    <trip id="bicycle250" depart="2152.00" from="HunSt_1_1" to="GowSt_1_3" type="bicycle_bicycle"/>
    <trip id="bicycle251" depart="2157.00" from="TorPl_1_1" to="MalSt_1_1" type="bicycle_bicycle"/>
    <trip id="bicycle252" depart="2163.00" from="TorPl_1_1" to="GorSq_1_3" type="bicycle_bicycle"/>
    <trip id="bicycle253" depart="2166.00" from="CheMe_1_1" to="GorSq_1_3" type="bicycle_bicycle"/>
    <trip id="bicycle254" depart="2173.00" from="HunSt_1_1" to="MalSt_1_1" type="bicycle_bicycle"/>
    <trip id="bicycle255" depart="2188.00" from="GorSq_2_1" to="MalSt_1_1" type="bicycle_bicycle"/>
    <trip id="bicycle256" depart="2191.00" from="HunSt_1_1" to="GorSq_2_3" type="bicycle_bicycle"/>
    <trip id="bicycle257" depart="2191.00" from="GorSq_1_1" to="GowSt_2_3" type="bicycle_bicycle"/>
    <trip id="bicycle258" depart="2225.00" from="MalSt_2_1" to="GorSq_1_3" type="bicycle_bicycle"/>
    <trip id="bicycle259" depart="2232.00" from="RidGa_2_1" to="GowSt_2_3" type="bicycle_bicycle"/>
    <trip id="bicycle260" depart="2233.00" from="CheMe_1_1" to="GorSq_1_3" type="bicycle_bicycle"/>
    <trip id="bicycle261" depart="2233.00" from="HunSt_1_1" to="TorPl_2_5" type="bicycle_bicycle"/>
    <trip id="bicycle262" depart="2235.00" from="GorSq_1_1" to="TorPl_2_5" type="bicycle_bicycle"/>
    <trip id="bicycle263" depart="2258.00" from="GowSt_1_1" to="MalSt_1_1" type="bicycle_bicycle"/>
    <trip id="bicycle264" depart="2262.00" from="RidGa_2_1" to="MalSt_1_1" type="bicycle_bicycle"/>
    <trip id="bicycle265" depart="2271.00" from="MalSt_2_1" to="TorPl_2_5" type="bicycle_bicycle"/>
    <trip id="bicycle266" depart="2278.00" from="CheMe_1_1" to="GowSt_1_3" type="bicycle_bicycle"/>
    <trip id="bicycle267" depart="2282.00" from="HunSt_2_1" to="GorSq_2_3" type="bicycle_bicycle"/>
    <trip id="bicycle268" depart="2284.00" from="GowSt_1_1" to="GorSq_1_3" type="bicycle_bicycle"/>
    <trip id="bicycle269" depart="2304.00" from="TorPl_1_1" to="GowSt_2_3" type="bicycle_bicycle"/>
    <trip id="bicycle270" depart="2308.00" from="GowSt_2_1" to="HunSt_1_2" type="bicycle_bicycle"/>
    <trip id="bicycle271" depart="2316.00" from="GowSt_2_1" to="HunSt_1_2" type="bicycle_bicycle"/>
    <trip id="bicycle272" depart="2366.00" from="GowSt_2_1" to="GowSt_2_3" type="bicycle_bicycle"/>
    <trip id="bicycle273" depart="2378.00" from="MalSt_2_1" to="MalSt_1_1" type="bicycle_bicycle"/>
    <trip id="bicycle274" depart="2383.00" from="RidGa_2_1" to="HunSt_1_2" type="bicycle_bicycle"/>
    <trip id="bicycle275" depart="2390.00" from="GorSq_2_1" to="GorSq_1_3" type="bicycle_bicycle"/>
    <trip id="bicycle276" depart="2391.00" from="CheMe_1_1" to="GorSq_2_3" type="bicycle_bicycle"/>
    <trip id="bicycle277" depart="2397.00" from="HunSt_1_1" to="GorSq_1_3" type="bicycle_bicycle"/>
    <trip id="bicycle278" depart="2404.00" from="GowSt_2_1" to="GowSt_1_3" type="bicycle_bicycle"/>
    <trip id="bicycle279" depart="2407.00" from="GorSq_1_1" to="MalSt_1_1" type="bicycle_bicycle"/>
    <trip id="bicycle280" depart="2430.00" from="GowSt_2_1" to="MalSt_1_1" type="bicycle_bicycle"/>
    <trip id="bicycle281" depart="2449.00" from="GorSq_1_1" to="GorSq_1_3" type="bicycle_bicycle"/>
    <trip id="bicycle282" depart="2463.00" from="GowSt_2_1" to="HunSt_1_2" type="bicycle_bicycle"/>
    <trip id="bicycle283" depart="2534.00" from="CheMe_1_1" to="GowSt_1_3" type="bicycle_bicycle"/>
    <trip id="bicycle284" depart="2544.00" from="HunSt_2_1" to="HunSt_1_2" type="bicycle_bicycle"/>
    <trip id="bicycle285" depart="2544.00" from="HunSt_2_1" to="MalSt_1_1" type="bicycle_bicycle"/>
    <trip id="bicycle286" depart="2552.00" from="HunSt_2_1" to="GowSt_2_3" type="bicycle_bicycle"/>
    <trip id="bicycle287" depart="2553.00" from="MalSt_2_1" to="HunSt_1_2" type="bicycle_bicycle"/>
    <trip id="bicycle288" depart="2563.00" from="GowSt_1_1" to="GowSt_2_3" type="bicycle_bicycle"/>
    <trip id="bicycle289" depart="2570.00" from="GorSq_1_1" to="GowSt_1_3" type="bicycle_bicycle"/>
    <trip id="bicycle290" depart="2570.00" from="GowSt_1_1" to="GorSq_1_3" type="bicycle_bicycle"/>
    <trip id="bicycle291" depart="2606.00" from="TorPl_1_1" to="TorPl_2_5" type="bicycle_bicycle"/>