<?xml version="1.0" encoding="UTF-8"?>

<!-- generated on 2025-11-19 09:51:07.768084 by randomTrips.py v1_24_0+0000-b72eb3fabc8
<configuration>
    <net-file value="../networks/demo/main.net.xml"/>
    <output-trip-file value="../routes/demo/bicycle.trips.xml"/>
    <route-file value="../routes/demo/bicycle.rou.xml"/>
    <prefix value="bicycle"/>
    <vehicle-class value="bicycle"/>
    <fringe-factor value="max"/>
    <seed value="1041"/>
    <period value="10.0"/>
    <binomial value="100"/>
</configuration>
-->

<!-- generated on 2025-11-19 09:51:07 by Eclipse SUMO duarouter Version 1.24.0
<duarouterConfiguration xmlns:xsi="http://www.w3.org/2001/XMLSchema-instance" xsi:noNamespaceSchemaLocation="http://sumo.dlr.de/xsd/duarouterConfiguration.xsd">

    <input>
        <net-file value="../networks/demo/main.net.xml"/>
        <route-files value="../routes/demo/bicycle.trips.xml"/>
    </input>

    <output>
        <output-file value="../routes/demo/bicycle.rou.xml"/>
        <alternatives-output value="NUL"/>
    </output>

    <time>
        <begin value="0"/>
        <end value="3600.0"/>
    </time>

    <report>
        <no-warnings value="true"/>
        <ignore-errors value="true"/>
        <no-step-log value="true"/>
    </report>

</duarouterConfiguration>
-->

<routes xmlns:xsi="http://www.w3.org/2001/XMLSchema-instance" xsi:noNamespaceSchemaLocation="http://sumo.dlr.de/xsd/routes_file.xsd">
    <vType id="bicycle_bicycle" vClass="bicycle"/>
    <vehicle id="bicycle0" type="bicycle_bicycle" depart="11.00">
        <route edges="HunSt_2_1 TorPl_1_2 TorPl_1_3 TorPl_1_4 GowSt_2_3"/>
    </vehicle>
    <vehicle id="bicycle1" type="bicycle_bicycle" depart="12.00">
        <route edges="HunSt_1_1 TorPl_2_5"/>
    </vehicle>
    <vehicle id="bicycle2" type="bicycle_bicycle" depart="22.00">
        <route edges="GowSt_1_1 GowSt_1_2 TorPl_2_3 TorPl_2_4 HunSt_1_2"/>
    </vehicle>
    <vehicle id="bicycle3" type="bicycle_bicycle" depart="48.00">
        <route edges="TorPl_1_1 HunSt_1_2"/>
    </vehicle>
    <vehicle id="bicycle4" type="bicycle_bicycle" depart="66.00">
        <route edges="GorSq_2_1 GorSq_2_2 BynPl_2_1 BynPl_2_2 BynPl_2_3 TorPl_2_1 TorPl_2_2 TorPl_2_3 TorPl_2_4 HunSt_1_2"/>
    </vehicle>
    <vehicle id="bicycle5" type="bicycle_bicycle" depart="67.00">
        <route edges="CheMe_1_1 TorPl_1_3 TorPl_1_4 GowSt_2_3"/>
    </vehicle>
    <vehicle id="bicycle6" type="bicycle_bicycle" depart="91.00">
        <route edges="CheMe_1_1 TorPl_1_3 TorPl_1_4 GowSt_1_3"/>
    </vehicle>
    <vehicle id="bicycle7" type="bicycle_bicycle" depart="96.00">
        <route edges="GorSq_2_1 GorSq_2_2 GorSq_1_2 GorSq_1_3"/>
    </vehicle>
    <vehicle id="bicycle8" type="bicycle_bicycle" depart="123.00">
        <route edges="MalSt_2_1 TorPl_2_1 TorPl_2_2 TorPl_2_3 TorPl_2_4 HunSt_1_2"/>
    </vehicle>
    <vehicle id="bicycle9" type="bicycle_bicycle" depart="146.00">
        <route edges="HunSt_2_1 TorPl_1_2 TorPl_1_3 TorPl_1_4 TorPl_1_5 MalSt_1_1"/>
    </vehicle>
    <vehicle id="bicycle10" type="bicycle_bicycle" depart="162.00">
        <route edges="GorSq_1_1 BynPl_2_1 BynPl_2_2 BynPl_2_3 TorPl_2_1 TorPl_2_2 TorPl_2_3 TorPl_2_4 TorPl_2_5"/>
    </vehicle>
    <vehicle id="bicycle11" type="bicycle_bicycle" depart="163.00">
        <route edges="GowSt_2_1 GowSt_2_2 TorPl_2_3 TorPl_2_4 HunSt_1_2"/>
    </vehicle>
    <vehicle id="bicycle12" type="bicycle_bicycle" depart="173.00">
        <route edges="HunSt_1_1 TorPl_1_2 TorPl_1_3 TorPl_1_4 GowSt_2_3"/>
    </vehicle>
    <vehicle id="bicycle13" type="bicycle_bicycle" depart="177.00">
        <route edges="RidGa_2_1 TorPl_1_3 TorPl_1_4 TorPl_1_5 BynPl_1_1 BynPl_1_2 BynPl_1_3 GorSq_2_3"/>
    </vehicle>
    <vehicle id="bicycle14" type="bicycle_bicycle" depart="188.00">
        <route edges="CheMe_1_1 TorPl_2_4 HunSt_1_2"/>
    </vehicle>
    <vehicle id="bicycle15" type="bicycle_bicycle" depart="189.00">
        <route edges="HunSt_2_1 TorPl_2_5"/>
    </vehicle>
    <vehicle id="bicycle16" type="bicycle_bicycle" depart="193.00">
        <route edges="HunSt_1_1 TorPl_1_2 TorPl_1_3 TorPl_1_4 GowSt_1_3"/>
    </vehicle>
    <vehicle id="bicycle17" type="bicycle_bicycle" depart="215.00">
        <route edges="CheMe_1_1 TorPl_1_3 TorPl_1_4 TorPl_1_5 MalSt_1_1"/>
    </vehicle>
    <vehicle id="bicycle18" type="bicycle_bicycle" depart="220.00">
        <route edges="MalSt_2_1 TorPl_2_1 TorPl_2_2 GowSt_2_3"/>
    </vehicle>
    <vehicle id="bicycle19" type="bicycle_bicycle" depart="225.00">
        <route edges="HunSt_2_1 TorPl_1_2 TorPl_1_3 TorPl_1_4 TorPl_2_3 TorPl_2_4 HunSt_1_2"/>
    </vehicle>
    <vehicle id="bicycle20" type="bicycle_bicycle" depart="230.00">
        <route edges="HunSt_2_1 TorPl_1_2 TorPl_1_3 TorPl_1_4 TorPl_1_5 BynPl_1_1 BynPl_1_2 BynPl_1_3 GorSq_1_2 GorSq_1_3"/>
    </vehicle>
    <vehicle id="bicycle21" type="bicycle_bicycle" depart="246.00">
        <route edges="GowSt_1_1 GowSt_1_2 TorPl_2_3 TorPl_2_4 TorPl_2_5"/>
    </vehicle>
    <vehicle id="bicycle22" type="bicycle_bicycle" depart="246.00">
        <route edges="GowSt_2_1 GowSt_2_2 TorPl_1_5 BynPl_1_1 BynPl_1_2 BynPl_1_3 GorSq_1_2 GorSq_1_3"/>
    </vehicle>
    <vehicle id="bicycle23" type="bicycle_bicycle" depart="257.00">
        <route edges="HunSt_1_1 TorPl_1_2 TorPl_1_3 TorPl_1_4 GowSt_1_3"/>
    </vehicle>
    <vehicle id="bicycle24" type="bicycle_bicycle" depart="263.00">
        <route edges="HunSt_1_1 TorPl_1_2 TorPl_1_3 TorPl_1_4 TorPl_1_5 BynPl_1_1 BynPl_1_2 BynPl_1_3 GorSq_1_2 GorSq_1_3"/>
    </vehicle>
    <vehicle id="bicycle25" type="bicycle_bicycle" depart="280.00">
        <route edges="MalSt_2_1 BynPl_1_1 BynPl_1_2 BynPl_1_3 GorSq_1_2 GorSq_1_3"/>
    </vehicle>
    <vehicle id="bicycle26" type="bicycle_bicycle" depart="280.00">
        <route edges="TorPl_1_1 TorPl_1_2 TorPl_1_3 TorPl_1_4 TorPl_1_5 MalSt_1_1"/>
    </vehicle>
    <vehicle id="bicycle27" type="bicycle_bicycle" depart="299.00">
        <route edges="GorSq_2_1 GorSq_2_2 BynPl_2_1 BynPl_2_2 BynPl_2_3 TorPl_2_1 TorPl_2_2 GowSt_1_3"/>
    </vehicle>
    <vehicle id="bicycle28" type="bicycle_bicycle" depart="300.00">
        <route edges="GorSq_2_1 GorSq_2_2 GorSq_1_2 GorSq_1_3"/>
    </vehicle>
    <vehicle id="bicycle29" type="bicycle_bicycle" depart="307.00">
        <route edges="MalSt_2_1 TorPl_2_1 TorPl_2_2 TorPl_2_3 TorPl_2_4 TorPl_2_5"/>
    </vehicle>
    <vehicle id="bicycle30" type="bicycle_bicycle" depart="307.00">
        <route edges="GorSq_1_1 BynPl_2_1 BynPl_2_2 BynPl_2_3 TorPl_2_1 TorPl_2_2 TorPl_2_3 TorPl_2_4 TorPl_2_5"/>
    </vehicle>
    <vehicle id="bicycle31" type="bicycle_bicycle" depart="312.00">
        <route edges="GorSq_1_1 BynPl_2_1 BynPl_2_2 BynPl_2_3 MalSt_1_1"/>
    </vehicle>
    <vehicle id="bicycle32" type="bicycle_bicycle" depart="343.00">
        <route edges="GorSq_1_1 BynPl_2_1 BynPl_2_2 BynPl_2_3 TorPl_2_1 TorPl_2_2 GowSt_2_3"/>
    </vehicle>
    <vehicle id="bicycle33" type="bicycle_bicycle" depart="345.00">
        <route edges="GowSt_2_1 GowSt_2_2 TorPl_1_5 BynPl_1_1 BynPl_1_2 BynPl_1_3 GorSq_1_2 GorSq_1_3"/>
    </vehicle>
    <vehicle id="bicycle34" type="bicycle_bicycle" depart="354.00">
        <route edges="GorSq_2_1 GorSq_2_2 GorSq_1_2 GorSq_1_3"/>
    </vehicle>
    <vehicle id="bicycle35" type="bicycle_bicycle" depart="361.00">
        <route edges="GorSq_1_1 BynPl_2_1 BynPl_2_2 BynPl_2_3 TorPl_2_1 TorPl_2_2 GowSt_1_3"/>
    </vehicle>
    <vehicle id="bicycle36" type="bicycle_bicycle" depart="371.00">
        <route edges="GowSt_2_1 GowSt_2_2 TorPl_1_5 MalSt_1_1"/>
    </vehicle>
    <vehicle id="bicycle37" type="bicycle_bicycle" depart="373.00">
        <route edges="GowSt_2_1 GowSt_2_2 TorPl_2_3 TorPl_2_4 HunSt_1_2"/>
    </vehicle>
    <vehicle id="bicycle38" type="bicycle_bicycle" depart="377.00">
        <route edges="HunSt_1_1 TorPl_1_2 TorPl_1_3 TorPl_1_4 TorPl_1_5 BynPl_1_1 BynPl_1_2 BynPl_1_3 GorSq_1_2 GorSq_1_3"/>
    </vehicle>
    <vehicle id="bicycle39" type="bicycle_bicycle" depart="381.00">
        <route edges="GowSt_2_1 GowSt_2_2 TorPl_1_5 BynPl_1_1 BynPl_1_2 BynPl_1_3 GorSq_1_2 GorSq_1_3"/>
    </vehicle>
    <vehicle id="bicycle40" type="bicycle_bicycle" depart="410.00">
        <route edges="HunSt_1_1 TorPl_1_2 TorPl_1_3 TorPl_1_4 TorPl_1_5 BynPl_1_1 BynPl_1_2 BynPl_1_3 GorSq_1_2 GorSq_1_3"/>
    </vehicle>
    <vehicle id="bicycle41" type="bicycle_bicycle" depart="415.00">
        <route edges="GorSq_2_1 GorSq_2_2 GorSq_2_3"/>
    </vehicle>
    <vehicle id="bicycle42" type="bicycle_bicycle" depart="427.00">
        <route edges="RidGa_2_1 TorPl_1_3 TorPl_1_4 TorPl_1_5 BynPl_1_1 BynPl_1_2 BynPl_1_3 GorSq_1_2 GorSq_1_3"/>
    </vehicle>
    <vehicle id="bicycle43" type="bicycle_bicycle" depart="428.00">
        <route edges="TorPl_1_1 TorPl_1_2 TorPl_1_3 TorPl_1_4 GowSt_2_3"/>
    </vehicle>
    <vehicle id="bicycle44" type="bicycle_bicycle" depart="433.00">
        <route edges="CheMe_1_1 TorPl_1_3 TorPl_1_4 TorPl_1_5 MalSt_1_1"/>
    </vehicle>
    <vehicle id="bicycle45" type="bicycle_bicycle" depart="437.00">
        <route edges="RidGa_2_1 TorPl_1_3 TorPl_1_4 GowSt_2_3"/>
    </vehicle>
    <vehicle id="bicycle46" type="bicycle_bicycle" depart="442.00">
        <route edges="HunSt_1_1 TorPl_1_2 TorPl_1_3 TorPl_1_4 TorPl_1_5 BynPl_1_1 BynPl_1_2 BynPl_1_3 GorSq_2_3"/>
    </vehicle>
    <vehicle id="bicycle47" type="bicycle_bicycle" depart="448.00">
        <route edges="GowSt_1_1 GowSt_1_2 TorPl_1_5 MalSt_1_1"/>
    </vehicle>
    <vehicle id="bicycle48" type="bicycle_bicycle" depart="448.00">
        <route edges="GorSq_2_1 GorSq_2_2 BynPl_2_1 BynPl_2_2 BynPl_2_3 TorPl_2_1 TorPl_2_2 GowSt_2_3"/>
    </vehicle>
    <vehicle id="bicycle49" type="bicycle_bicycle" depart="458.00">
        <route edges="GowSt_1_1 GowSt_1_2 TorPl_2_3 TorPl_2_4 TorPl_2_5"/>
    </vehicle>
    <vehicle id="bicycle50" type="bicycle_bicycle" depart="459.00">
        <route edges="HunSt_1_1 TorPl_1_2 TorPl_1_3 TorPl_1_4 GowSt_1_3"/>
    </vehicle>
    <vehicle id="bicycle51" type="bicycle_bicycle" depart="465.00">
        <route edges="GorSq_1_1 BynPl_2_1 BynPl_2_2 BynPl_2_3 TorPl_2_1 TorPl_2_2 TorPl_2_3 TorPl_2_4 TorPl_2_5"/>
    </vehicle>
    <vehicle id="bicycle52" type="bicycle_bicycle" depart="483.00">
        <route edges="GorSq_2_1 GorSq_2_2 BynPl_2_1 BynPl_2_2 BynPl_2_3 TorPl_2_1 TorPl_2_2 TorPl_2_3 TorPl_2_4 TorPl_2_5"/>
    </vehicle>
    <vehicle id="bicycle53" type="bicycle_bicycle" depart="491.00">
        <route edges="GorSq_2_1 GorSq_2_2 BynPl_2_1 BynPl_2_2 BynPl_2_3 TorPl_2_1 TorPl_2_2 GowSt_2_3"/>
    </vehicle>
    <vehicle id="bicycle54" type="bicycle_bicycle" depart="512.00">
        <route edges="HunSt_1_1 HunSt_1_2"/>
    </vehicle>
    <vehicle id="bicycle55" type="bicycle_bicycle" depart="527.00">
        <route edges="RidGa_2_1 TorPl_1_3 TorPl_1_4 TorPl_1_5 MalSt_1_1"/>
    </vehicle>
    <vehicle id="bicycle56" type="bicycle_bicycle" depart="530.00">
        <route edges="GorSq_2_1 GorSq_2_2 GorSq_1_2 GorSq_1_3"/>
    </vehicle>
    <vehicle id="bicycle57" type="bicycle_bicycle" depart="531.00">
        <route edges="HunSt_2_1 TorPl_1_2 TorPl_1_3 TorPl_1_4 TorPl_2_3 TorPl_2_4 HunSt_1_2"/>
    </vehicle>
    <vehicle id="bicycle58" type="bicycle_bicycle" depart="540.00">
        <route edges="HunSt_1_1 TorPl_1_2 TorPl_1_3 TorPl_1_4 GowSt_1_3"/>
    </vehicle>
    <vehicle id="bicycle59" type="bicycle_bicycle" depart="546.00">
        <route edges="HunSt_2_1 TorPl_1_2 TorPl_1_3 TorPl_1_4 TorPl_1_5 BynPl_1_1 BynPl_1_2 BynPl_1_3 GorSq_1_2 GorSq_1_3"/>
    </vehicle>
    <vehicle id="bicycle60" type="bicycle_bicycle" depart="551.00">
        <route edges="HunSt_2_1 TorPl_1_2 TorPl_1_3 TorPl_1_4 TorPl_1_5 BynPl_1_1 BynPl_1_2 BynPl_1_3 GorSq_2_3"/>
    </vehicle>
    <vehicle id="bicycle61" type="bicycle_bicycle" depart="553.00">
        <route edges="TorPl_1_1 TorPl_1_2 TorPl_1_3 TorPl_1_4 TorPl_1_5 BynPl_1_1 BynPl_1_2 BynPl_1_3 GorSq_1_2 GorSq_1_3"/>
    </vehicle>
    <vehicle id="bicycle62" type="bicycle_bicycle" depart="561.00">
        <route edges="GowSt_1_1 GowSt_1_2 TorPl_1_5 BynPl_1_1 BynPl_1_2 BynPl_1_3 GorSq_1_2 GorSq_1_3"/>
    </vehicle>
    <vehicle id="bicycle63" type="bicycle_bicycle" depart="563.00">
        <route edges="GowSt_1_1 GowSt_1_2 GowSt_1_3"/>
    </vehicle>
    <vehicle id="bicycle64" type="bicycle_bicycle" depart="586.00">
        <route edges="GorSq_2_1 GorSq_2_2 BynPl_2_1 BynPl_2_2 BynPl_2_3 TorPl_2_1 TorPl_2_2 GowSt_1_3"/>
    </vehicle>
    <vehicle id="bicycle65" type="bicycle_bicycle" depart="586.00">
        <route edges="GorSq_1_1 BynPl_2_1 BynPl_2_2 BynPl_2_3 MalSt_1_1"/>
    </vehicle>
    <vehicle id="bicycle66" type="bicycle_bicycle" depart="590.00">
        <route edges="CheMe_1_1 TorPl_1_3 TorPl_1_4 TorPl_1_5 MalSt_1_1"/>
    </vehicle>
    <vehicle id="bicycle67" type="bicycle_bicycle" depart="590.00">
        <route edges="GowSt_1_1 GowSt_1_2 TorPl_1_5 MalSt_1_1"/>
    </vehicle>
    <vehicle id="bicycle68" type="bicycle_bicycle" depart="601.00">
        <route edges="GowSt_1_1 GowSt_1_2 TorPl_1_5 BynPl_1_1 BynPl_1_2 BynPl_1_3 GorSq_1_2 GorSq_1_3"/>
    </vehicle>
    <vehicle id="bicycle69" type="bicycle_bicycle" depart="605.00">
        <route edges="HunSt_2_1 TorPl_1_2 TorPl_1_3 TorPl_1_4 TorPl_1_5 BynPl_1_1 BynPl_1_2 BynPl_1_3 GorSq_1_2 GorSq_1_3"/>
    </vehicle>
    <vehicle id="bicycle70" type="bicycle_bicycle" depart="612.00">
        <route edges="CheMe_1_1 TorPl_2_4 HunSt_1_2"/>
    </vehicle>
    <vehicle id="bicycle71" type="bicycle_bicycle" depart="615.00">
        <route edges="HunSt_1_1 TorPl_2_5"/>
    </vehicle>
    <vehicle id="bicycle72" type="bicycle_bicycle" depart="615.00">
        <route edges="HunSt_2_1 TorPl_1_2 TorPl_1_3 TorPl_1_4 TorPl_1_5 BynPl_1_1 BynPl_1_2 BynPl_1_3 GorSq_2_3"/>
    </vehicle>
    <vehicle id="bicycle73" type="bicycle_bicycle" depart="616.00">
        <route edges="HunSt_2_1 TorPl_1_2 TorPl_1_3 TorPl_1_4 TorPl_1_5 BynPl_1_1 BynPl_1_2 BynPl_1_3 GorSq_2_3"/>
    </vehicle>
    <vehicle id="bicycle74" type="bicycle_bicycle" depart="641.00">
        <route edges="RidGa_2_1 TorPl_1_3 TorPl_1_4 TorPl_1_5 BynPl_1_1 BynPl_1_2 BynPl_1_3 GorSq_2_3"/>
    </vehicle>
    <vehicle id="bicycle75" type="bicycle_bicycle" depart="651.00">
        <route edges="CheMe_1_1 TorPl_1_3 TorPl_1_4 TorPl_1_5 BynPl_1_1 BynPl_1_2 BynPl_1_3 GorSq_2_3"/>
    </vehicle>
    <vehicle id="bicycle76" type="bicycle_bicycle" depart="663.00">
        <route edges="GowSt_2_1 GowSt_2_2 TorPl_2_3 TorPl_2_4 HunSt_1_2"/>
    </vehicle>
    <vehicle id="bicycle77" type="bicycle_bicycle" depart="691.00">
        <route edges="TorPl_1_1 TorPl_1_2 TorPl_1_3 TorPl_1_4 TorPl_1_5 MalSt_1_1"/>
    </vehicle>
    <vehicle id="bicycle78" type="bicycle_bicycle" depart="692.00">
        <route edges="GowSt_2_1 GowSt_2_2 TorPl_2_3 TorPl_2_4 HunSt_1_2"/>
    </vehicle>
    <vehicle id="bicycle79" type="bicycle_bicycle" depart="700.00">
        <route edges="GorSq_2_1 GorSq_2_2 GorSq_2_3"/>
    </vehicle>
    <vehicle id="bicycle80" type="bicycle_bicycle" depart="702.00">
        <route edges="RidGa_2_1 TorPl_1_3 TorPl_1_4 GowSt_1_3"/>
    </vehicle>
    <vehicle id="bicycle81" type="bicycle_bicycle" depart="713.00">
        <route edges="RidGa_2_1 TorPl_1_3 TorPl_1_4 TorPl_1_5 MalSt_1_1"/>
    </vehicle>
    <vehicle id="bicycle82" type="bicycle_bicycle" depart="714.00">
        <route edges="GowSt_1_1 GowSt_1_2 TorPl_2_3 TorPl_2_4 TorPl_2_5"/>
    </vehicle>
    <vehicle id="bicycle83" type="bicycle_bicycle" depart="742.00">
        <route edges="HunSt_2_1 TorPl_1_2 TorPl_1_3 TorPl_1_4 TorPl_1_5 BynPl_1_1 BynPl_1_2 BynPl_1_3 GorSq_1_2 GorSq_1_3"/>
    </vehicle>
    <vehicle id="bicycle84" type="bicycle_bicycle" depart="751.00">
        <route edges="RidGa_2_1 TorPl_2_4 TorPl_2_5"/>
    </vehicle>
    <vehicle id="bicycle85" type="bicycle_bicycle" depart="756.00">
        <route edges="GorSq_2_1 GorSq_2_2 GorSq_2_3"/>
    </vehicle>
    <vehicle id="bicycle86" type="bicycle_bicycle" depart="757.00">
        <route edges="HunSt_2_1 TorPl_1_2 TorPl_1_3 TorPl_1_4 GowSt_1_3"/>
    </vehicle>
    <vehicle id="bicycle87" type="bicycle_bicycle" depart="763.00">
        <route edges="GowSt_2_1 GowSt_2_2 TorPl_2_3 TorPl_2_4 TorPl_2_5"/>
    </vehicle>
    <vehicle id="bicycle88" type="bicycle_bicycle" depart="770.00">
        <route edges="TorPl_1_1 TorPl_1_2 TorPl_1_3 TorPl_1_4 TorPl_1_5 BynPl_1_1 BynPl_1_2 BynPl_1_3 GorSq_2_3"/>
    </vehicle>
    <vehicle id="bicycle89" type="bicycle_bicycle" depart="797.00">
        <route edges="CheMe_1_1 TorPl_1_3 TorPl_1_4 TorPl_1_5 BynPl_1_1 BynPl_1_2 BynPl_1_3 GorSq_2_3"/>
    </vehicle>
    <vehicle id="bicycle90" type="bicycle_bicycle" depart="800.00">
        <route edges="TorPl_1_1 TorPl_1_2 TorPl_1_3 TorPl_1_4 GowSt_2_3"/>
    </vehicle>
    <vehicle id="bicycle91" type="bicycle_bicycle" depart="805.00">
        <route edges="CheMe_1_1 TorPl_1_3 TorPl_1_4 GowSt_1_3"/>
    </vehicle>
    <vehicle id="bicycle92" type="bicycle_bicycle" depart="812.00">
        <route edges="MalSt_2_1 TorPl_2_1 TorPl_2_2 TorPl_2_3 TorPl_2_4 TorPl_2_5"/>
    </vehicle>
    <vehicle id="bicycle93" type="bicycle_bicycle" depart="819.00">
        <route edges="GowSt_1_1 GowSt_1_2 TorPl_2_3 TorPl_2_4 HunSt_1_2"/>
    </vehicle>
    <vehicle id="bicycle94" type="bicycle_bicycle" depart="820.00">
        <route edges="HunSt_1_1 TorPl_1_2 TorPl_1_3 TorPl_1_4 GowSt_2_3"/>
    </vehicle>
    <vehicle id="bicycle95" type="bicycle_bicycle" depart="831.00">
        <route edges="GowSt_1_1 GowSt_1_2 TorPl_1_5 BynPl_1_1 BynPl_1_2 BynPl_1_3 GorSq_2_3"/>
    </vehicle>
    <vehicle id="bicycle96" type="bicycle_bicycle" depart="864.00">
        <route edges="GowSt_1_1 GowSt_1_2 GowSt_1_3"/>
    </vehicle>
    <vehicle id="bicycle97" type="bicycle_bicycle" depart="886.00">
        <route edges="GorSq_2_1 GorSq_2_2 GorSq_1_2 GorSq_1_3"/>
    </vehicle>
    <vehicle id="bicycle98" type="bicycle_bicycle" depart="887.00">
        <route edges="GorSq_1_1 GorSq_1_2 GorSq_1_3"/>
    </vehicle>
    <vehicle id="bicycle99" type="bicycle_bicycle" depart="913.00">
        <route edges="GorSq_1_1 BynPl_2_1 BynPl_2_2 BynPl_2_3 BynPl_1_1 BynPl_1_2 BynPl_1_3 GorSq_2_3"/>
    </vehicle>
    <vehicle id="bicycle100" type="bicycle_bicycle" depart="925.00">
        <route edges="HunSt_2_1 TorPl_1_2 TorPl_1_3 TorPl_1_4 TorPl_1_5 MalSt_1_1"/>
    </vehicle>
    <vehicle id="bicycle101" type="bicycle_bicycle" depart="933.00">
        <route edges="GowSt_2_1 GowSt_2_2 TorPl_1_5 MalSt_1_1"/>
    </vehicle>
    <vehicle id="bicycle102" type="bicycle_bicycle" depart="934.00">
        <route edges="CheMe_1_1 TorPl_1_3 TorPl_1_4 GowSt_1_3"/>
    </vehicle>
    <vehicle id="bicycle103" type="bicycle_bicycle" depart="953.00">
        <route edges="HunSt_2_1 TorPl_1_2 TorPl_1_3 TorPl_1_4 TorPl_1_5 BynPl_1_1 BynPl_1_2 BynPl_1_3 GorSq_2_3"/>
    </vehicle>
    <vehicle id="bicycle104" type="bicycle_bicycle" depart="954.00">
        <route edges="TorPl_1_1 TorPl_1_2 TorPl_1_3 TorPl_1_4 TorPl_1_5 BynPl_1_1 BynPl_1_2 BynPl_1_3 GorSq_2_3"/>
    </vehicle>
    <vehicle id="bicycle105" type="bicycle_bicycle" depart="970.00">
        <route edges="RidGa_2_1 TorPl_2_4 TorPl_2_5"/>
    </vehicle>
    <vehicle id="bicycle106" type="bicycle_bicycle" depart="981.00">
        <route edges="HunSt_2_1 TorPl_1_2 TorPl_1_3 TorPl_1_4 TorPl_1_5 MalSt_1_1"/>
    </vehicle>
    <vehicle id="bicycle107" type="bicycle_bicycle" depart="983.00">
        <route edges="GowSt_1_1 GowSt_1_2 TorPl_2_3 TorPl_2_4 HunSt_1_2"/>
    </vehicle>
    <vehicle id="bicycle108" type="bicycle_bicycle" depart="989.00">
        <route edges="HunSt_2_1 TorPl_1_2 TorPl_1_3 TorPl_1_4 GowSt_1_3"/>
    </vehicle>
    <vehicle id="bicycle109" type="bicycle_bicycle" depart="1000.00">
        <route edges="HunSt_1_1 TorPl_1_2 TorPl_1_3 TorPl_1_4 GowSt_1_3"/>
    </vehicle>
    <vehicle id="bicycle110" type="bicycle_bicycle" depart="1015.00">
        <route edges="CheMe_1_1 TorPl_1_3 TorPl_1_4 TorPl_1_5 MalSt_1_1"/>
    </vehicle>
    <vehicle id="bicycle111" type="bicycle_bicycle" depart="1021.00">
        <route edges="CheMe_1_1 TorPl_1_3 TorPl_1_4 TorPl_1_5 BynPl_1_1 BynPl_1_2 BynPl_1_3 GorSq_2_3"/>
    </vehicle>
    <vehicle id="bicycle112" type="bicycle_bicycle" depart="1022.00">
        <route edges="GorSq_2_1 GorSq_2_2 BynPl_2_1 BynPl_2_2 BynPl_2_3 MalSt_1_1"/>
    </vehicle>
    <vehicle id="bicycle113" type="bicycle_bicycle" depart="1025.00">
        <route edges="GowSt_1_1 GowSt_1_2 TorPl_1_5 BynPl_1_1 BynPl_1_2 BynPl_1_3 BynPl_2_1 BynPl_2_2 BynPl_2_3 TorPl_2_1 TorPl_2_2 GowSt_2_3"/>
    </vehicle>
    <vehicle id="bicycle114" type="bicycle_bicycle" depart="1031.00">
        <route edges="HunSt_2_1 TorPl_1_2 TorPl_1_3 TorPl_1_4 TorPl_2_3 TorPl_2_4 HunSt_1_2"/>
    </vehicle>
    <vehicle id="bicycle115" type="bicycle_bicycle" depart="1073.00">
        <route edges="RidGa_2_1 TorPl_2_4 TorPl_2_5"/>
    </vehicle>
    <vehicle id="bicycle116" type="bicycle_bicycle" depart="1076.00">
        <route edges="HunSt_1_1 TorPl_1_2 TorPl_1_3 TorPl_1_4 TorPl_1_5 MalSt_1_1"/>
    </vehicle>
    <vehicle id="bicycle117" type="bicycle_bicycle" depart="1091.00">
        <route edges="GorSq_2_1 GorSq_2_2 GorSq_1_2 GorSq_1_3"/>
    </vehicle>
    <vehicle id="bicycle118" type="bicycle_bicycle" depart="1119.00">
        <route edges="TorPl_1_1 TorPl_1_2 TorPl_1_3 TorPl_1_4 TorPl_1_5 MalSt_1_1"/>
    </vehicle>
    <vehicle id="bicycle119" type="bicycle_bicycle" depart="1122.00">
        <route edges="TorPl_1_1 TorPl_1_2 TorPl_1_3 TorPl_1_4 TorPl_1_5 BynPl_1_1 BynPl_1_2 BynPl_1_3 GorSq_2_3"/>
    </vehicle>
    <vehicle id="bicycle120" type="bicycle_bicycle" depart="1124.00">
        <route edges="GowSt_1_1 GowSt_1_2 GowSt_1_3"/>
    </vehicle>
    <vehicle id="bicycle121" type="bicycle_bicycle" depart="1125.00">
        <route edges="TorPl_1_1 TorPl_1_2 TorPl_1_3 TorPl_1_4 GowSt_1_3"/>
    </vehicle>
    <vehicle id="bicycle122" type="bicycle_bicycle" depart="1137.00">
        <route edges="RidGa_2_1 TorPl_1_3 TorPl_1_4 TorPl_1_5 BynPl_1_1 BynPl_1_2 BynPl_1_3 GorSq_2_3"/>
    </vehicle>
    <vehicle id="bicycle123" type="bicycle_bicycle" depart="1161.00">
        <route edges="TorPl_1_1 HunSt_1_2"/>
    </vehicle>
    <vehicle id="bicycle124" type="bicycle_bicycle" depart="1161.00">
        <route edges="CheMe_1_1 TorPl_1_3 TorPl_1_4 TorPl_1_5 BynPl_1_1 BynPl_1_2 BynPl_1_3 GorSq_2_3"/>
    </vehicle>
    <vehicle id="bicycle125" type="bicycle_bicycle" depart="1169.00">
        <route edges="GowSt_1_1 GowSt_1_2 TorPl_2_3 TorPl_2_4 HunSt_1_2"/>
    </vehicle>
    <vehicle id="bicycle126" type="bicycle_bicycle" depart="1183.00">
        <route edges="RidGa_2_1 TorPl_1_3 TorPl_1_4 TorPl_1_5 MalSt_1_1"/>
    </vehicle>
    <vehicle id="bicycle127" type="bicycle_bicycle" depart="1193.00">
        <route edges="HunSt_1_1 TorPl_1_2 TorPl_1_3 TorPl_1_4 TorPl_1_5 BynPl_1_1 BynPl_1_2 BynPl_1_3 GorSq_2_3"/>
    </vehicle>
    <vehicle id="bicycle128" type="bicycle_bicycle" depart="1215.00">
        <route edges="GowSt_1_1 GowSt_1_2 GowSt_1_3"/>
    </vehicle>
    <vehicle id="bicycle129" type="bicycle_bicycle" depart="1225.00">
        <route edges="MalSt_2_1 TorPl_2_1 TorPl_2_2 TorPl_2_3 TorPl_2_4 TorPl_2_5"/>
    </vehicle>
    <vehicle id="bicycle130" type="bicycle_bicycle" depart="1241.00">
        <route edges="TorPl_1_1 TorPl_1_2 TorPl_1_3 TorPl_1_4 TorPl_1_5 BynPl_1_1 BynPl_1_2 BynPl_1_3 GorSq_2_3"/>
    </vehicle>
    <vehicle id="bicycle131" type="bicycle_bicycle" depart="1242.00">
        <route edges="GowSt_1_1 GowSt_1_2 TorPl_1_5 MalSt_1_1"/>
    </vehicle>
    <vehicle id="bicycle132" type="bicycle_bicycle" depart="1242.00">
        <route edges="GowSt_1_1 GowSt_1_2 TorPl_2_3 TorPl_2_4 TorPl_2_5"/>
    </vehicle>
    <vehicle id="bicycle133" type="bicycle_bicycle" depart="1265.00">
        <route edges="GorSq_2_1 GorSq_2_2 BynPl_2_1 BynPl_2_2 BynPl_2_3 TorPl_2_1 TorPl_2_2 TorPl_2_3 TorPl_2_4 TorPl_2_5"/>
    </vehicle>
    <vehicle id="bicycle134" type="bicycle_bicycle" depart="1268.00">
        <route edges="RidGa_2_1 TorPl_1_3 TorPl_1_4 TorPl_1_5 BynPl_1_1 BynPl_1_2 BynPl_1_3 GorSq_1_2 GorSq_1_3"/>
    </vehicle>
    <vehicle id="bicycle135" type="bicycle_bicycle" depart="1285.00">
        <route edges="MalSt_2_1 TorPl_2_1 TorPl_2_2 TorPl_1_5 MalSt_1_1"/>
    </vehicle>
    <vehicle id="bicycle136" type="bicycle_bicycle" depart="1290.00">
        <route edges="GorSq_2_1 GorSq_2_2 BynPl_2_1 BynPl_2_2 BynPl_2_3 TorPl_2_1 TorPl_2_2 GowSt_2_3"/>
    </vehicle>
    <vehicle id="bicycle137" type="bicycle_bicycle" depart="1290.00">
        <route edges="TorPl_1_1 HunSt_1_2"/>
    </vehicle>
    <vehicle id="bicycle138" type="bicycle_bicycle" depart="1296.00">
        <route edges="MalSt_2_1 BynPl_1_1 BynPl_1_2 BynPl_1_3 GorSq_2_3"/>
    </vehicle>
    <vehicle id="bicycle139" type="bicycle_bicycle" depart="1299.00">
        <route edges="TorPl_1_1 TorPl_1_2 TorPl_1_3 TorPl_1_4 TorPl_1_5 BynPl_1_1 BynPl_1_2 BynPl_1_3 GorSq_2_3"/>
    </vehicle>
    <vehicle id="bicycle140" type="bicycle_bicycle" depart="1307.00">
        <route edges="HunSt_1_1 TorPl_1_2 TorPl_1_3 TorPl_1_4 TorPl_1_5 BynPl_1_1 BynPl_1_2 BynPl_1_3 GorSq_2_3"/>
    </vehicle>
    <vehicle id="bicycle141" type="bicycle_bicycle" depart="1314.00">
        <route edges="MalSt_2_1 BynPl_1_1 BynPl_1_2 BynPl_1_3 GorSq_2_3"/>
    </vehicle>
    <vehicle id="bicycle142" type="bicycle_bicycle" depart="1320.00">
        <route edges="CheMe_1_1 TorPl_1_3 TorPl_1_4 GowSt_1_3"/>
    </vehicle>
    <vehicle id="bicycle143" type="bicycle_bicycle" depart="1320.00">
        <route edges="HunSt_2_1 TorPl_1_2 TorPl_1_3 TorPl_1_4 TorPl_1_5 BynPl_1_1 BynPl_1_2 BynPl_1_3 GorSq_2_3"/>
    </vehicle>
    <vehicle id="bicycle144" type="bicycle_bicycle" depart="1321.00">
        <route edges="GorSq_1_1 BynPl_2_1 BynPl_2_2 BynPl_2_3 MalSt_1_1"/>
    </vehicle>
    <vehicle id="bicycle145" type="bicycle_bicycle" depart="1324.00">
        <route edges="CheMe_1_1 TorPl_2_4 HunSt_1_2"/>
    </vehicle>
    <vehicle id="bicycle146" type="bicycle_bicycle" depart="1327.00">
        <route edges="HunSt_1_1 TorPl_1_2 TorPl_1_3 TorPl_1_4 TorPl_1_5 MalSt_1_1"/>
    </vehicle>
    <vehicle id="bicycle147" type="bicycle_bicycle" depart="1334.00">
        <route edges="GorSq_2_1 GorSq_2_2 BynPl_2_1 BynPl_2_2 BynPl_2_3 TorPl_2_1 TorPl_2_2 TorPl_2_3 TorPl_2_4 HunSt_1_2"/>
    </vehicle>
    <vehicle id="bicycle148" type="bicycle_bicycle" depart="1339.00">
        <route edges="GorSq_2_1 GorSq_2_2 BynPl_2_1 BynPl_2_2 BynPl_2_3 TorPl_2_1 TorPl_2_2 GowSt_2_3"/>
    </vehicle>
    <vehicle id="bicycle149" type="bicycle_bicycle" depart="1340.00">
        <route edges="MalSt_2_1 TorPl_2_1 TorPl_2_2 GowSt_2_3"/>
    </vehicle>
    <vehicle id="bicycle150" type="bicycle_bicycle" depart="1341.00">
        <route edges="CheMe_1_1 TorPl_1_3 TorPl_1_4 GowSt_2_3"/>
    </vehicle>
    <vehicle id="bicycle151" type="bicycle_bicycle" depart="1342.00">
        <route edges="GowSt_1_1 GowSt_1_2 TorPl_1_5 BynPl_1_1 BynPl_1_2 BynPl_1_3 BynPl_2_1 BynPl_2_2 BynPl_2_3 TorPl_2_1 TorPl_2_2 GowSt_2_3"/>
    </vehicle>
    <vehicle id="bicycle152" type="bicycle_bicycle" depart="1356.00">
        <route edges="RidGa_2_1 TorPl_2_4 HunSt_1_2"/>
    </vehicle>
    <vehicle id="bicycle153" type="bicycle_bicycle" depart="1377.00">
        <route edges="CheMe_1_1 TorPl_1_3 TorPl_1_4 TorPl_1_5 BynPl_1_1 BynPl_1_2 BynPl_1_3 GorSq_1_2 GorSq_1_3"/>
    </vehicle>
    <vehicle id="bicycle154" type="bicycle_bicycle" depart="1379.00">
        <route edges="GowSt_1_1 GowSt_1_2 TorPl_1_5 BynPl_1_1 BynPl_1_2 BynPl_1_3 BynPl_2_1 BynPl_2_2 BynPl_2_3 TorPl_2_1 TorPl_2_2 GowSt_2_3"/>
    </vehicle>
    <vehicle id="bicycle155" type="bicycle_bicycle" depart="1380.00">
        <route edges="RidGa_2_1 TorPl_1_3 TorPl_1_4 TorPl_1_5 MalSt_1_1"/>
    </vehicle>
    <vehicle id="bicycle156" type="bicycle_bicycle" depart="1384.00">
        <route edges="HunSt_1_1 TorPl_1_2 TorPl_1_3 TorPl_1_4 TorPl_1_5 MalSt_1_1"/>
    </vehicle>
    <vehicle id="bicycle157" type="bicycle_bicycle" depart="1386.00">
        <route edges="HunSt_1_1 TorPl_1_2 TorPl_1_3 TorPl_1_4 TorPl_1_5 MalSt_1_1"/>
    </vehicle>
    <vehicle id="bicycle158" type="bicycle_bicycle" depart="1390.00">
        <route edges="GorSq_1_1 GorSq_1_2 GorSq_1_3"/>
    </vehicle>
    <vehicle id="bicycle159" type="bicycle_bicycle" depart="1394.00">
        <route edges="RidGa_2_1 TorPl_1_3 TorPl_1_4 GowSt_2_3"/>
    </vehicle>
    <vehicle id="bicycle160" type="bicycle_bicycle" depart="1396.00">
        <route edges="HunSt_1_1 TorPl_1_2 TorPl_1_3 TorPl_1_4 TorPl_1_5 BynPl_1_1 BynPl_1_2 BynPl_1_3 GorSq_1_2 GorSq_1_3"/>
    </vehicle>
    <vehicle id="bicycle161" type="bicycle_bicycle" depart="1396.00">
        <route edges="TorPl_1_1 TorPl_1_2 TorPl_1_3 TorPl_1_4 GowSt_2_3"/>
    </vehicle>
    <vehicle id="bicycle162" type="bicycle_bicycle" depart="1402.00">
        <route edges="GorSq_1_1 GorSq_1_2 GorSq_1_3"/>
    </vehicle>
    <vehicle id="bicycle163" type="bicycle_bicycle" depart="1402.00">
        <route edges="GowSt_2_1 GowSt_2_2 TorPl_2_3 TorPl_2_4 TorPl_2_5"/>
    </vehicle>
    <vehicle id="bicycle164" type="bicycle_bicycle" depart="1402.00">
        <route edges="MalSt_2_1 TorPl_2_1 TorPl_2_2 TorPl_2_3 TorPl_2_4 TorPl_2_5"/>
    </vehicle>
    <vehicle id="bicycle165" type="bicycle_bicycle" depart="1416.00">