<?xml version="1.0" encoding="UTF-8"?>

<!-- generated on 2025-11-16 23:00:54.799888 by randomTrips.py v1_24_0+0000-b72eb3fabc8
<configuration>
    <net-file value="../networks/demo/main.net.xml"/>
    <output-trip-file value="../routes/demo/car.trips.xml"/>
    <route-file value="../routes/demo/car.rou.xml"/>
    <prefix value="car"/>
    <random-factor value="4.553072305809952"/>
    <fringe-factor value="max"/>
    <seed value="46"/>
    <period value="1.396255967165039"/>
    <binomial value="100"/>
</configuration>
-->

<routes xmlns:xsi="http://www.w3.org/2001/XMLSchema-instance" xsi:noNamespaceSchemaLocation="http://sumo.dlr.de/xsd/routes_file.xsd">
    <trip id="car0" depart="0.00" from="GowSt_2_1" to="HunSt_1_2"/>
    <trip id="car1" depart="0.00" from="GowSt_1_1" to="HunSt_1_2"/>
    <trip id="car2" depart="4.00" from="CheMe_1_1" to="HunSt_1_2"/>
    <trip id="car3" depart="4.00" from="GowSt_1_1" to="GowSt_1_2"/>
    <trip id="car4" depart="6.00" from="GowSt_1_1" to="GorSq_2_3"/>
    <trip id="car5" depart="6.00" from="GowSt_1_1" to="HunSt_1_2"/>
    <trip id="car6" depart="7.00" from="GowSt_1_1" to="GorSq_2_3"/>
    <trip id="car7" depart="9.00" from="GowSt_2_1" to="GorSq_2_3"/>
    <trip id="car8" depart="11.00" from="CheMe_1_1" to="TorPl_2_4"/>
    <trip id="car9" depart="12.00" from="MalSt_2_1" to="GorSq_1_3"/>
    <trip id="car10" depart="13.00" from="GowSt_1_1" to="GowSt_1_2"/>
    <trip id="car11" depart="16.00" from="GowSt_1_1" to="HunSt_1_2"/>
    <trip id="car12" depart="16.00" from="GowSt_1_1" to="GorSq_1_3"/>
    <trip id="car13" depart="20.00" from="GowSt_1_1" to="TorPl_2_4"/>
    <trip id="car14" depart="22.00" from="GowSt_1_1" to="GorSq_1_3"/>
    <trip id="car15" depart="22.00" from="GowSt_2_1" to="GorSq_2_3"/>
    <trip id="car16" depart="23.00" from="GowSt_2_1" to="GorSq_1_3"/>
    <trip id="car17" depart="23.00" from="GowSt_1_1" to="GorSq_1_3"/>
    <trip id="car18" depart="24.00" from="CheMe_1_1" to="TorPl_2_4"/>
    <trip id="car19" depart="24.00" from="CheMe_1_1" to="HunSt_1_2"/>
    <trip id="car20" depart="26.00" from="GowSt_1_1" to="GorSq_2_3"/>
    <trip id="car21" depart="30.00" from="GowSt_2_1" to="GorSq_2_3"/>
    <trip id="car22" depart="30.00" from="MalSt_2_1" to="GorSq_1_3"/>
    <trip id="car23" depart="33.00" from="GowSt_1_1" to="HunSt_1_2"/>
    <trip id="car24" depart="33.00" from="GowSt_2_1" to="GorSq_2_3"/>
    <trip id="car25" depart="34.00" from="GowSt_2_1" to="GorSq_2_3"/>
    <trip id="car26" depart="35.00" from="GowSt_1_1" to="GorSq_2_3"/>
    <trip id="car27" depart="36.00" from="GowSt_1_1" to="HunSt_1_2"/>
    <trip id="car28" depart="41.00" from="GowSt_2_1" to="GorSq_2_3"/>
    <trip id="car29" depart="43.00" from="MalSt_2_1" to="GorSq_2_3"/>
    <trip id="car30" depart="43.00" from="GowSt_1_1" to="GorSq_2_3"/>
    <trip id="car31" depart="43.00" from="GowSt_2_1" to="GorSq_1_3"/>
    <trip id="car32" depart="44.00" from="GowSt_1_1" to="GowSt_1_2"/>
    <trip id="car33" depart="44.00" from="GowSt_2_1" to="GorSq_2_3"/>
    <trip id="car34" depart="46.00" from="GowSt_1_1" to="TorPl_2_4"/>
    <trip id="car35" depart="49.00" from="MalSt_2_1" to="GorSq_2_3"/>
    <trip id="car36" depart="52.00" from="GowSt_1_1" to="GowSt_1_2"/>
    <trip id="car37" depart="52.00" from="GowSt_2_1" to="GorSq_2_3"/>
    <trip id="car38" depart="52.00" from="GowSt_1_1" to="HunSt_1_2"/>
    <trip id="car39" depart="55.00" from="GowSt_1_1" to="TorPl_2_4"/>
    <trip id="car40" depart="57.00" from="GowSt_1_1" to="GorSq_1_3"/>
    <trip id="car41" depart="58.00" from="GowSt_2_1" to="TorPl_2_4"/>
    <trip id="car42" depart="60.00" from="GowSt_1_1" to="TorPl_2_4"/>
    <trip id="car43" depart="61.00" from="GowSt_1_1" to="TorPl_2_4"/>
    <trip id="car44" depart="62.00" from="GowSt_1_1" to="GowSt_1_2"/>
    <trip id="car45" depart="64.00" from="GowSt_1_1" to="GorSq_1_3"/>
    <trip id="car46" depart="64.00" from="GowSt_1_1" to="GorSq_2_3"/>
    <trip id="car47" depart="65.00" from="GowSt_2_1" to="GowSt_2_2"/>
    <trip id="car48" depart="66.00" from="RidGa_2_1" to="TorPl_2_4"/>
    <trip id="car49" depart="67.00" from="GowSt_1_1" to="GorSq_1_3"/>
    <trip id="car50" depart="67.00" from="CheMe_1_1" to="TorPl_2_4"/>
    <trip id="car51" depart="68.00" from="HunSt_1_1" to="TorPl_2_4"/>
    <trip id="car52" depart="70.00" from="GowSt_2_1" to="GowSt_2_2"/>
    <trip id="car53" depart="70.00" from="GowSt_2_1" to="TorPl_2_4"/>
    <trip id="car54" depart="70.00" from="GowSt_2_1" to="GorSq_2_3"/>
    <trip id="car55" depart="71.00" from="GowSt_2_1" to="TorPl_2_4"/>
    <trip id="car56" depart="71.00" from="RidGa_2_1" to="HunSt_1_2"/>
    <trip id="car57" depart="71.00" from="GowSt_2_1" to="GowSt_2_2"/>
    <trip id="car58" depart="72.00" from="GowSt_2_1" to="GorSq_1_3"/>
    <trip id="car59" depart="77.00" from="MalSt_2_1" to="GorSq_2_3"/>
    <trip id="car60" depart="78.00" from="CheMe_1_1" to="TorPl_2_4"/>
    <trip id="car61" depart="80.00" from="CheMe_1_1" to="HunSt_1_2"/>
    <trip id="car62" depart="80.00" from="GowSt_2_1" to="GowSt_2_2"/>
    <trip id="car63" depart="82.00" from="GowSt_2_1" to="HunSt_1_2"/>
    <trip id="car64" depart="86.00" from="GowSt_2_1" to="GorSq_1_3"/>
    <trip id="car65" depart="87.00" from="MalSt_2_1" to="GorSq_1_3"/>
    <trip id="car66" depart="87.00" from="GowSt_1_1" to="GorSq_2_3"/>
    <trip id="car67" depart="87.00" from="GowSt_1_1" to="TorPl_2_4"/>
    <trip id="car68" depart="89.00" from="GowSt_2_1" to="GorSq_1_3"/>
    <trip id="car69" depart="94.00" from="GowSt_2_1" to="GorSq_1_3"/>
    <trip id="car70" depart="94.00" from="MalSt_2_1" to="GorSq_1_3"/>
    <trip id="car71" depart="95.00" from="RidGa_2_1" to="TorPl_2_4"/>
    <trip id="car72" depart="96.00" from="CheMe_1_1" to="TorPl_2_4"/>
    <trip id="car73" depart="98.00" from="MalSt_2_1" to="GorSq_2_3"/>
    <trip id="car74" depart="100.00" from="CheMe_1_1" to="TorPl_2_4"/>
    <trip id="car75" depart="101.00" from="CheMe_1_1" to="TorPl_2_4"/>
    <trip id="car76" depart="103.00" from="MalSt_2_1" to="GorSq_2_3"/>
    <trip id="car77" depart="103.00" from="GowSt_1_1" to="GowSt_1_2"/>
    <trip id="car78" depart="108.00" from="GowSt_2_1" to="GorSq_1_3"/>
    <trip id="car79" depart="108.00" from="MalSt_2_1" to="GorSq_2_3"/>
    <trip id="car80" depart="108.00" from="GowSt_2_1" to="GorSq_1_3"/>
    <trip id="car81" depart="109.00" from="GowSt_2_1" to="HunSt_1_2"/>
    <trip id="car82" depart="109.00" from="RidGa_2_1" to="HunSt_1_2"/>
    <trip id="car83" depart="109.00" from="GowSt_1_1" to="TorPl_2_4"/>
    <trip id="car84" depart="110.00" from="GowSt_2_1" to="GorSq_2_3"/>
    <trip id="car85" depart="110.00" from="GowSt_1_1" to="HunSt_1_2"/>
    <trip id="car86" depart="114.00" from="GowSt_2_1" to="HunSt_1_2"/>
    <trip id="car87" depart="114.00" from="GowSt_2_1" to="GorSq_1_3"/>
    <trip id="car88" depart="117.00" from="CheMe_1_1" to="TorPl_2_4"/>
    <trip id="car89" depart="119.00" from="CheMe_1_1" to="TorPl_2_4"/>
    <trip id="car90" depart="120.00" from="MalSt_2_1" to="GorSq_2_3"/>
    <trip id="car91" depart="120.00" from="GowSt_2_1" to="GorSq_1_3"/>
    <trip id="car92" depart="122.00" from="GowSt_1_1" to="TorPl_2_4"/>
    <trip id="car93" depart="123.00" from="RidGa_2_1" to="HunSt_1_2"/>
    <trip id="car94" depart="123.00" from="GowSt_1_1" to="GowSt_1_2"/>
    <trip id="car95" depart="123.00" from="HunSt_1_1" to="HunSt_1_2"/>
    <trip id="car96" depart="124.00" from="GowSt_2_1" to="GorSq_1_3"/>
    <trip id="car97" depart="126.00" from="GowSt_2_1" to="HunSt_1_2"/>
    <trip id="car98" depart="128.00" from="GowSt_2_1" to="HunSt_1_2"/>
    <trip id="car99" depart="129.00" from="GowSt_2_1" to="GorSq_1_3"/>
    <trip id="car100" depart="131.00" from="RidGa_2_1" to="TorPl_2_4"/>
    <trip id="car101" depart="132.00" from="CheMe_1_1" to="HunSt_1_2"/>
    <trip id="car102" depart="134.00" from="GowSt_1_1" to="GorSq_2_3"/>
    <trip id="car103" depart="136.00" from="CheMe_1_1" to="HunSt_1_2"/>
    <trip id="car104" depart="136.00" from="GowSt_1_1" to="GowSt_1_2"/>
    <trip id="car105" depart="140.00" from="GowSt_1_1" to="GorSq_1_3"/>
    <trip id="car106" depart="147.00" from="GowSt_1_1" to="GowSt_1_2"/>
    <trip id="car107" depart="147.00" from="RidGa_2_1" to="TorPl_2_4"/>
    <trip id="car108" depart="147.00" from="GowSt_1_1" to="TorPl_2_4"/>
    <trip id="car109" depart="147.00" from="CheMe_1_1" to="HunSt_1_2"/>
    <trip id="car110" depart="148.00" from="GowSt_1_1" to="GowSt_1_2"/>
    <trip id="car111" depart="149.00" from="GowSt_1_1" to="TorPl_2_4"/>
    <trip id="car112" depart="150.00" from="GowSt_1_1" to="GorSq_1_3"/>
    <trip id="car113" depart="150.00" from="GowSt_1_1" to="TorPl_2_4"/>
    <trip id="car114" depart="150.00" from="GowSt_2_1" to="TorPl_2_4"/>
    <trip id="car115" depart="151.00" from="GowSt_1_1" to="GorSq_2_3"/>
    <trip id="car116" depart="152.00" from="GowSt_2_1" to="HunSt_1_2"/>
    <trip id="car117" depart="152.00" from="GowSt_2_1" to="TorPl_2_4"/>
    <trip id="car118" depart="153.00" from="GowSt_1_1" to="GowSt_1_2"/>
    <trip id="car119" depart="154.00" from="GowSt_2_1" to="GowSt_2_2"/>
    <trip id="car120" depart="154.00" from="MalSt_2_1" to="GorSq_1_3"/>
    <trip id="car121" depart="155.00" from="MalSt_2_1" to="GorSq_2_3"/>
    <trip id="car122" depart="156.00" from="GowSt_1_1" to="TorPl_2_4"/>
    <trip id="car123" depart="156.00" from="GowSt_2_1" to="TorPl_2_4"/>
    <trip id="car124" depart="157.00" from="GowSt_1_1" to="GorSq_1_3"/>
    <trip id="car125" depart="157.00" from="GowSt_2_1" to="GorSq_2_3"/>
    <trip id="car126" depart="158.00" from="GowSt_2_1" to="GorSq_1_3"/>
    <trip id="car127" depart="159.00" from="GowSt_1_1" to="GorSq_1_3"/>
    <trip id="car128" depart="159.00" from="GowSt_1_1" to="GorSq_2_3"/>
    <trip id="car129" depart="162.00" from="GowSt_2_1" to="GorSq_2_3"/>
    <trip id="car130" depart="163.00" from="GowSt_2_1" to="TorPl_2_4"/>
    <trip id="car131" depart="164.00" from="GowSt_1_1" to="GorSq_1_3"/>
    <trip id="car132" depart="169.00" from="GowSt_1_1" to="GorSq_2_3"/>
    <trip id="car133" depart="172.00" from="GowSt_1_1" to="GowSt_1_2"/>
    <trip id="car134" depart="172.00" from="RidGa_2_1" to="TorPl_2_4"/>
    <trip id="car135" depart="172.00" from="GowSt_1_1" to="TorPl_2_4"/>
    <trip id="car136" depart="174.00" from="GowSt_1_1" to="GorSq_1_3"/>
    <trip id="car137" depart="178.00" from="GowSt_1_1" to="GowSt_1_2"/>
    <trip id="car138" depart="181.00" from="GowSt_1_1" to="GowSt_1_2"/>
    <trip id="car139" depart="183.00" from="MalSt_2_1" to="GorSq_1_3"/>
    <trip id="car140" depart="184.00" from="GowSt_2_1" to="GorSq_2_3"/>
    <trip id="car141" depart="185.00" from="GowSt_2_1" to="HunSt_1_2"/>
    <trip id="car142" depart="190.00" from="GowSt_1_1" to="GowSt_1_2"/>
    <trip id="car143" depart="190.00" from="GowSt_2_1" to="GorSq_2_3"/>
    <trip id="car144" depart="192.00" from="GowSt_2_1" to="GorSq_1_3"/>
    <trip id="car145" depart="194.00" from="MalSt_2_1" to="GorSq_2_3"/>
    <trip id="car146" depart="195.00" from="RidGa_2_1" to="HunSt_1_2"/>
    <trip id="car147" depart="195.00" from="MalSt_2_1" to="GorSq_2_3"/>
    <trip id="car148" depart="199.00" from="GowSt_2_1" to="GorSq_2_3"/>
    <trip id="car149" depart="201.00" from="GowSt_1_1" to="GowSt_1_2"/>
    <trip id="car150" depart="204.00" from="GowSt_2_1" to="GorSq_1_3"/>
    <trip id="car151" depart="205.00" from="GorSq_1_1" to="GorSq_1_3"/>
    <trip id="car152" depart="206.00" from="GowSt_1_1" to="TorPl_2_4"/>
    <trip id="car153" depart="206.00" from="HunSt_1_1" to="TorPl_2_4"/>
    <trip id="car154" depart="210.00" from="GowSt_1_1" to="HunSt_1_2"/>
    <trip id="car155" depart="210.00" from="CheMe_1_1" to="TorPl_2_4"/>
    <trip id="car156" depart="218.00" from="CheMe_1_1" to="HunSt_1_2"/>
    <trip id="car157" depart="218.00" from="GowSt_2_1" to="GorSq_1_3"/>
    <trip id="car158" depart="218.00" from="GowSt_2_1" to="GorSq_2_3"/>
    <trip id="car159" depart="218.00" from="MalSt_2_1" to="GorSq_1_3"/>
    <trip id="car160" depart="219.00" from="GowSt_1_1" to="GorSq_1_3"/>
    <trip id="car161" depart="220.00" from="GowSt_2_1" to="GorSq_1_3"/>
    <trip id="car162" depart="221.00" from="GowSt_1_1" to="GorSq_1_3"/>
    <trip id="car163" depart="222.00" from="GowSt_1_1" to="GorSq_1_3"/>
    <trip id="car164" depart="224.00" from="MalSt_2_1" to="GorSq_2_3"/>
    <trip id="car165" depart="225.00" from="GowSt_1_1" to="TorPl_2_4"/>
    <trip id="car166" depart="226.00" from="GowSt_2_1" to="TorPl_2_4"/>
    <trip id="car167" depart="228.00" from="GowSt_1_1" to="TorPl_2_4"/>
    <trip id="car168" depart="229.00" from="GowSt_2_1" to="GorSq_2_3"/>
    <trip id="car169" depart="229.00" from="GowSt_1_1" to="TorPl_2_4"/>
    <trip id="car170" depart="230.00" from="HunSt_1_1" to="TorPl_2_4"/>
    <trip id="car171" depart="230.00" from="GowSt_2_1" to="TorPl_2_4"/>
    <trip id="car172" depart="232.00" from="GowSt_1_1" to="TorPl_2_4"/>
    <trip id="car173" depart="232.00" from="GowSt_2_1" to="TorPl_2_4"/>
    <trip id="car174" depart="233.00" from="RidGa_2_1" to="HunSt_1_2"/>
    <trip id="car175" depart="236.00" from="GowSt_2_1" to="GorSq_1_3"/>
    <trip id="car176" depart="240.00" from="HunSt_1_1" to="TorPl_2_4"/>
    <trip id="car177" depart="242.00" from="GowSt_1_1" to="GowSt_1_2"/>
    <trip id="car178" depart="242.00" from="GowSt_1_1" to="TorPl_2_4"/>
    <trip id="car179" depart="242.00" from="GowSt_1_1" to="GorSq_1_3"/>
    <trip id="car180" depart="243.00" from="GowSt_2_1" to="GorSq_2_3"/>
    <trip id="car181" depart="243.00" from="GowSt_1_1" to="GorSq_1_3"/>
    <trip id="car182" depart="246.00" from="MalSt_2_1" to="GorSq_2_3"/>
    <trip id="car183" depart="247.00" from="RidGa_2_1" to="TorPl_2_4"/>
    <trip id="car184" depart="247.00" from="GowSt_2_1" to="GorSq_2_3"/>
    <trip id="car185" depart="247.00" from="GowSt_1_1" to="GowSt_1_2"/>
    <trip id="car186" depart="247.00" from="GowSt_1_1" to="GowSt_1_2"/>
    <trip id="car187" depart="248.00" from="GowSt_2_1" to="GowSt_2_2"/>
    <trip id="car188" depart="248.00" from="GowSt_2_1" to="GorSq_1_3"/>
    <trip id="car189" depart="251.00" from="RidGa_2_1" to="HunSt_1_2"/>
    <trip id="car190" depart="252.00" from="GowSt_1_1" to="GowSt_1_2"/>
    <trip id="car191" depart="253.00" from="GowSt_1_1" to="TorPl_2_4"/>
    <trip id="car192" depart="253.00" from="GowSt_2_1" to="TorPl_2_4"/>
    <trip id="car193" depart="254.00" from="HunSt_1_1" to="TorPl_2_4"/>
    <trip id="car194" depart="255.00" from="GowSt_2_1" to="TorPl_2_4"/>
    <trip id="car195" depart="256.00" from="GowSt_2_1" to="GorSq_1_3"/>
    <trip id="car196" depart="257.00" from="HunSt_1_1" to="TorPl_2_4"/>
    <trip id="car197" depart="257.00" from="GowSt_1_1" to="GorSq_2_3"/>
    <trip id="car198" depart="262.00" from="CheMe_1_1" to="TorPl_2_4"/>
    <trip id="car199" depart="263.00" from="GowSt_2_1" to="GorSq_2_3"/>
    <trip id="car200" depart="264.00" from="GowSt_2_1" to="TorPl_2_4"/>
    <trip id="car201" depart="267.00" from="GowSt_1_1" to="GowSt_1_2"/>
    <trip id="car202" depart="268.00" from="GowSt_2_1" to="GorSq_2_3"/>
    <trip id="car203" depart="268.00" from="GowSt_1_1" to="GowSt_1_2"/>
    <trip id="car204" depart="269.00" from="MalSt_2_1" to="GorSq_1_3"/>
    <trip id="car205" depart="272.00" from="MalSt_2_1" to="GorSq_2_3"/>
    <trip id="car206" depart="274.00" from="CheMe_1_1" to="TorPl_2_4"/>
    <trip id="car207" depart="274.00" from="GowSt_2_1" to="GowSt_2_2"/>
    <trip id="car208" depart="279.00" from="GowSt_1_1" to="GowSt_1_2"/>
    <trip id="car209" depart="279.00" from="GowSt_2_1" to="GorSq_2_3"/>
    <trip id="car210" depart="280.00" from="MalSt_2_1" to="GorSq_2_3"/>
    <trip id="car211" depart="282.00" from="GowSt_1_1" to="GowSt_1_2"/>
    <trip id="car212" depart="282.00" from="MalSt_2_1" to="GorSq_2_3"/>
    <trip id="car213" depart="288.00" from="GowSt_2_1" to="GorSq_2_3"/>
    <trip id="car214" depart="288.00" from="GowSt_2_1" to="TorPl_2_4"/>
    <trip id="car215" depart="288.00" from="GowSt_1_1" to="GorSq_2_3"/>
    <trip id="car216" depart="292.00" from="GowSt_2_1" to="TorPl_2_4"/>
    <trip id="car217" depart="293.00" from="GowSt_1_1" to="TorPl_2_4"/>
    <trip id="car218" depart="294.00" from="GowSt_1_1" to="TorPl_2_4"/>
    <trip id="car219" depart="297.00" from="GowSt_1_1" to="TorPl_2_4"/>
    <trip id="car220" depart="300.00" from="CheMe_1_1" to="TorPl_2_4"/>
    <trip id="car221" depart="300.00" from="GowSt_2_1" to="GorSq_1_3"/>
    <trip id="car222" depart="303.00" from="GowSt_1_1" to="GowSt_1_2"/>
    <trip id="car223" depart="304.00" from="GowSt_1_1" to="GorSq_2_3"/>
    <trip id="car224" depart="305.00" from="GowSt_1_1" to="GorSq_1_3"/>
    <trip id="car225" depart="305.00" from="GowSt_1_1" to="GorSq_2_3"/>
    <trip id="car226" depart="305.00" from="MalSt_2_1" to="GorSq_1_3"/>
    <trip id="car227" depart="309.00" from="GowSt_2_1" to="GowSt_2_2"/>
    <trip id="car228" depart="311.00" from="GowSt_1_1" to="GowSt_1_2"/>
    <trip id="car229" depart="311.00" from="GowSt_1_1" to="HunSt_1_2"/>
    <trip id="car230" depart="311.00" from="GowSt_2_1" to="HunSt_1_2"/>
    <trip id="car231" depart="312.00" from="GowSt_2_1" to="TorPl_2_4"/>
    <trip id="car232" depart="313.00" from="RidGa_2_1" to="HunSt_1_2"/>
    <trip id="car233" depart="313.00" from="MalSt_2_1" to="GorSq_2_3"/>
    <trip id="car234" depart="317.00" from="GowSt_2_1" to="TorPl_2_4"/>
    <trip id="car235" depart="317.00" from="GowSt_2_1" to="GorSq_1_3"/>
    <trip id="car236" depart="317.00" from="GowSt_1_1" to="GowSt_1_2"/>
    <trip id="car237" depart="318.00" from="RidGa_2_1" to="TorPl_2_4"/>
    <trip id="car238" depart="320.00" from="MalSt_2_1" to="GorSq_2_3"/>
    <trip id="car239" depart="320.00" from="GowSt_2_1" to="GorSq_2_3"/>
    <trip id="car240" depart="322.00" from="GowSt_2_1" to="GowSt_2_2"/>
    <trip id="car241" depart="322.00" from="GowSt_1_1" to="GowSt_1_2"/>
    <trip id="car242" depart="324.00" from="GowSt_1_1" to="GowSt_1_2"/>
    <trip id="car243" depart="324.00" from="MalSt_2_1" to="GorSq_1_3"/>
    <trip id="car244" depart="326.00" from="GowSt_2_1" to="TorPl_2_4"/>
    <trip id="car245" depart="327.00" from="MalSt_2_1" to="GorSq_1_3"/>
    <trip id="car246" depart="327.00" from="GowSt_2_1" to="HunSt_1_2"/>
    <trip id="car247" depart="328.00" from="GowSt_1_1" to="GorSq_1_3"/>
    <trip id="car248" depart="329.00" from="GowSt_1_1" to="HunSt_1_2"/>
    <trip id="car249" depart="329.00" from="MalSt_2_1" to="GorSq_2_3"/>
    <trip id="car250" depart="330.00" from="GowSt_1_1" to="TorPl_2_4"/>
    <trip id="car251" depart="331.00" from="CheMe_1_1" to="TorPl_2_4"/>
    <trip id="car252" depart="333.00" from="GowSt_2_1" to="HunSt_1_2"/>
    <trip id="car253" depart="334.00" from="GowSt_2_1" to="GowSt_2_2"/>
    <trip id="car254" depart="337.00" from="CheMe_1_1" to="HunSt_1_2"/>
    <trip id="car255" depart="338.00" from="GowSt_1_1" to="TorPl_2_4"/>
    <trip id="car256" depart="340.00" from="GowSt_1_1" to="GorSq_2_3"/>
    <trip id="car257" depart="342.00" from="GowSt_2_1" to="GorSq_2_3"/>
    <trip id="car258" depart="342.00" from="GowSt_2_1" to="GorSq_2_3"/>
    <trip id="car259" depart="343.00" from="GowSt_1_1" to="HunSt_1_2"/>
    <trip id="car260" depart="344.00" from="GowSt_1_1" to="GorSq_2_3"/>
    <trip id="car261" depart="349.00" from="MalSt_2_1" to="GorSq_1_3"/>
    <trip id="car262" depart="349.00" from="GowSt_1_1" to="GorSq_2_3"/>
    <trip id="car263" depart="350.00" from="RidGa_2_1" to="TorPl_2_4"/>
    <trip id="car264" depart="351.00" from="HunSt_1_1" to="TorPl_2_4"/>
    <trip id="car265" depart="352.00" from="CheMe_1_1" to="TorPl_2_4"/>
    <trip id="car266" depart="352.00" from="GowSt_1_1" to="GorSq_2_3"/>
    <trip id="car267" depart="353.00" from="GowSt_1_1" to="GorSq_2_3"/>
    <trip id="car268" depart="354.00" from="GowSt_2_1" to="GorSq_1_3"/>
    <trip id="car269" depart="354.00" from="RidGa_2_1" to="HunSt_1_2"/>
    <trip id="car270" depart="354.00" from="GowSt_1_1" to="GowSt_1_2"/>
    <trip id="car271" depart="355.00" from="GowSt_2_1" to="GorSq_2_3"/>
    <trip id="car272" depart="356.00" from="GowSt_1_1" to="TorPl_2_4"/>
    <trip id="car273" depart="357.00" from="RidGa_2_1" to="TorPl_2_4"/>
    <trip id="car274" depart="358.00" from="GowSt_2_1" to="GorSq_2_3"/>
    <trip id="car275" depart="358.00" from="RidGa_2_1" to="TorPl_2_4"/>
    <trip id="car276" depart="358.00" from="GowSt_2_1" to="TorPl_2_4"/>
    <trip id="car277" depart="359.00" from="GowSt_2_1" to="HunSt_1_2"/>
    <trip id="car278" depart="360.00" from="MalSt_2_1" to="GorSq_1_3"/>
    <trip id="car279" depart="361.00" from="RidGa_2_1" to="HunSt_1_2"/>
    <trip id="car280" depart="363.00" from="GowSt_1_1" to="TorPl_2_4"/>
    <trip id="car281" depart="363.00" from="GorSq_1_1" to="GorSq_1_3"/>
    <trip id="car282" depart="365.00" from="GowSt_1_1" to="GowSt_1_2"/>
    <trip id="car283" depart="366.00" from="GowSt_1_1" to="GowSt_1_2"/>
    <trip id="car284" depart="367.00" from="GowSt_2_1" to="TorPl_2_4"/>
    <trip id="car285" depart="368.00" from="GowSt_1_1" to="GowSt_1_2"/>
    <trip id="car286" depart="370.00" from="GowSt_2_1" to="GorSq_1_3"/>
    <trip id="car287" depart="370.00" from="GowSt_2_1" to="GowSt_2_2"/>
    <trip id="car288" depart="372.00" from="MalSt_2_1" to="GorSq_2_3"/>
    <trip id="car289" depart="373.00" from="GowSt_2_1" to="GorSq_2_3"/>
    <trip id="car290" depart="374.00" from="GowSt_1_1" to="TorPl_2_4"/>
    <trip id="car291" depart="376.00" from="GowSt_1_1" to="GowSt_1_2"/>
    <trip id="car292" depart="377.00" from="GowSt_2_1" to="TorPl_2_4"/>
    <trip id="car293" depart="379.00" from="GowSt_2_1" to="GorSq_1_3"/>
    <trip id="car294" depart="379.00" from="GowSt_2_1" to="GorSq_1_3"/>
    <trip id="car295" depart="381.00" from="GowSt_2_1" to="TorPl_2_4"/>
    <trip id="car296" depart="386.00" from="CheMe_1_1" to="TorPl_2_4"/>
    <trip id="car297" depart="387.00" from="GowSt_1_1" to="GowSt_1_2"/>
    <trip id="car298" depart="388.00" from="GowSt_1_1" to="HunSt_1_2"/>
    <trip id="car299" depart="389.00" from="RidGa_2_1" to="TorPl_2_4"/>
    <trip id="car300" depart="390.00" from="CheMe_1_1" to="HunSt_1_2"/>
    <trip id="car301" depart="393.00" from="HunSt_1_1" to="TorPl_2_4"/>
    <trip id="car302" depart="396.00" from="GowSt_2_1" to="GorSq_1_3"/>
    <trip id="car303" depart="396.00" from="MalSt_2_1" to="GorSq_2_3"/>
    <trip id="car304" depart="397.00" from="GowSt_1_1" to="TorPl_2_4"/>
    <trip id="car305" depart="398.00" from="GowSt_2_1" to="GorSq_2_3"/>
    <trip id="car306" depart="398.00" from="GowSt_2_1" to="TorPl_2_4"/>
    <trip id="car307" depart="399.00" from="CheMe_1_1" to="TorPl_2_4"/>
    <trip id="car308" depart="407.00" from="GowSt_2_1" to="GorSq_2_3"/>
    <trip id="car309" depart="408.00" from="CheMe_1_1" to="TorPl_2_4"/>
    <trip id="car310" depart="408.00" from="GowSt_2_1" to="GorSq_1_3"/>
    <trip id="car311" depart="409.00" from="GowSt_1_1" to="TorPl_2_4"/>
    <trip id="car312" depart="412.00" from="GowSt_2_1" to="GowSt_2_2"/>
    <trip id="car313" depart="414.00" from="GowSt_2_1" to="TorPl_2_4"/>
    <trip id="car314" depart="414.00" from="GowSt_1_1" to="GowSt_1_2"/>
    <trip id="car315" depart="416.00" from="GowSt_1_1" to="TorPl_2_4"/>
    <trip id="car316" depart="418.00" from="GowSt_1_1" to="GorSq_2_3"/>
    <trip id="car317" depart="419.00" from="HunSt_1_1" to="HunSt_1_2"/>
    <trip id="car318" depart="421.00" from="MalSt_2_1" to="GorSq_1_3"/>
    <trip id="car319" depart="429.00" from="GowSt_2_1" to="GorSq_2_3"/>
    <trip id="car320" depart="430.00" from="GowSt_1_1" to="HunSt_1_2"/>
    <trip id="car321" depart="430.00" from="MalSt_2_1" to="GorSq_2_3"/>
    <trip id="car322" depart="433.00" from="MalSt_2_1" to="GorSq_1_3"/>
    <trip id="car323" depart="435.00" from="RidGa_2_1" to="HunSt_1_2"/>
    <trip id="car324" depart="437.00" from="GowSt_2_1" to="GorSq_1_3"/>
    <trip id="car325" depart="439.00" from="GowSt_1_1" to="GorSq_1_3"/>
    <trip id="car326" depart="440.00" from="CheMe_1_1" to="TorPl_2_4"/>
    <trip id="car327" depart="442.00" from="GowSt_1_1" to="GorSq_2_3"/>
    <trip id="car328" depart="442.00" from="GowSt_1_1" to="GorSq_2_3"/>
    <trip id="car329" depart="442.00" from="GowSt_2_1" to="GowSt_2_2"/>
    <trip id="car330" depart="443.00" from="RidGa_2_1" to="TorPl_2_4"/>
    <trip id="car331" depart="445.00" from="CheMe_1_1" to="TorPl_2_4"/>
    <trip id="car332" depart="446.00" from="HunSt_1_1" to="HunSt_1_2"/>
    <trip id="car333" depart="447.00" from="MalSt_2_1" to="GorSq_2_3"/>
    <trip id="car334" depart="447.00" from="CheMe_1_1" to="HunSt_1_2"/>
    <trip id="car335" depart="448.00" from="GowSt_1_1" to="HunSt_1_2"/>
    <trip id="car336" depart="451.00" from="MalSt_2_1" to="GorSq_1_3"/>
    <trip id="car337" depart="452.00" from="GowSt_1_1" to="GowSt_1_2"/>
    <trip id="car338" depart="453.00" from="GowSt_1_1" to="GowSt_1_2"/>
    <trip id="car339" depart="453.00" from="MalSt_2_1" to="GorSq_1_3"/>
    <trip id="car340" depart="456.00" from="RidGa_2_1" to="TorPl_2_4"/>
    <trip id="car341" depart="459.00" from="CheMe_1_1" to="HunSt_1_2"/>
    <trip id="car342" depart="459.00" from="GowSt_1_1" to="GorSq_1_3"/>
    <trip id="car343" depart="460.00" from="MalSt_2_1" to="GorSq_2_3"/>
    <trip id="car344" depart="461.00" from="GowSt_2_1" to="TorPl_2_4"/>
    <trip id="car345" depart="462.00" from="GowSt_2_1" to="GorSq_2_3"/>
    <trip id="car346" depart="463.00" from="GorSq_1_1" to="GorSq_1_3"/>
    <trip id="car347" depart="464.00" from="GowSt_1_1" to="TorPl_2_4"/>
    <trip id="car348" depart="465.00" from="GorSq_1_1" to="GorSq_1_3"/>
    <trip id="car349" depart="467.00" from="MalSt_2_1" to="GorSq_1_3"/>
    <trip id="car350" depart="467.00" from="GowSt_1_1" to="GowSt_1_2"/>
    <trip id="car351" depart="468.00" from="GorSq_1_1" to="GorSq_1_3"/>
    <trip id="car352" depart="468.00" from="GowSt_2_1" to="TorPl_2_4"/>
    <trip id="car353" depart="469.00" from="GowSt_2_1" to="GorSq_1_3"/>
    <trip id="car354" depart="471.00" from="MalSt_2_1" to="GorSq_2_3"/>
    <trip id="car355" depart="472.00" from="GowSt_2_1" to="GorSq_1_3"/>
    <trip id="car356" depart="473.00" from="MalSt_2_1" to="GorSq_1_3"/>
    <trip id="car357" depart="474.00" from="MalSt_2_1" to="GorSq_1_3"/>
    <trip id="car358" depart="477.00" from="GowSt_2_1" to="GorSq_2_3"/>
    <trip id="car359" depart="478.00" from="GowSt_2_1" to="TorPl_2_4"/>
    <trip id="car360" depart="482.00" from="CheMe_1_1" to="TorPl_2_4"/>
    <trip id="car361" depart="485.00" from="HunSt_1_1" to="TorPl_2_4"/>
    <trip id="car362" depart="489.00" from="GowSt_1_1" to="TorPl_2_4"/>
    <trip id="car363" depart="490.00" from="RidGa_2_1" to="TorPl_2_4"/>
    <trip id="car364" depart="492.00" from="GowSt_1_1" to="GorSq_2_3"/>
    <trip id="car365" depart="493.00" from="CheMe_1_1" to="TorPl_2_4"/>
    <trip id="car366" depart="499.00" from="GowSt_1_1" to="GowSt_1_2"/>
    <trip id="car367" depart="499.00" from="GowSt_1_1" to="GorSq_1_3"/>
    <trip id="car368" depart="500.00" from="GowSt_2_1" to="GowSt_2_2"/>
    <trip id="car369" depart="501.00" from="GowSt_1_1" to="GowSt_1_2"/>
    <trip id="car370" depart="502.00" from="GowSt_2_1" to="GorSq_2_3"/>
    <trip id="car371" depart="503.00" from="GowSt_2_1" to="GorSq_2_3"/>
    <trip id="car372" depart="503.00" from="GowSt_2_1" to="GowSt_2_2"/>
    <trip id="car373" depart="503.00" from="GowSt_1_1" to="GowSt_1_2"/>
    <trip id="car374" depart="504.00" from="MalSt_2_1" to="GorSq_2_3"/>
    <trip id="car375" depart="507.00" from="GowSt_2_1" to="GorSq_2_3"/>
    <trip id="car376" depart="508.00" from="CheMe_1_1" to="HunSt_1_2"/>
    <trip id="car377" depart="508.00" from="GowSt_1_1" to="TorPl_2_4"/>
    <trip id="car378" depart="509.00" from="GowSt_1_1" to="GowSt_1_2"/>
    <trip id="car379" depart="510.00" from="GowSt_1_1" to="TorPl_2_4"/>
    <trip id="car380" depart="510.00" from="GowSt_1_1" to="GowSt_1_2"/>
    <trip id="car381" depart="510.00" from="GowSt_1_1" to="GowSt_1_2"/>
    <trip id="car382" depart="510.00" from="GowSt_2_1" to="GorSq_1_3"/>
    <trip id="car383" depart="512.00" from="GowSt_2_1" to="GorSq_2_3"/>
    <trip id="car384" depart="513.00" from="GowSt_1_1" to="GowSt_1_2"/>
    <trip id="car385" depart="516.00" from="GowSt_1_1" to="TorPl_2_4"/>
    <trip id="car386" depart="517.00" from="GowSt_2_1" to="TorPl_2_4"/>
    <trip id="car387" depart="518.00" from="GowSt_1_1" to="GowSt_1_2"/>
    <trip id="car388" depart="519.00" from="HunSt_1_1" to="HunSt_1_2"/>
    <trip id="car389" depart="519.00" from="GowSt_2_1" to="GorSq_2_3"/>
    <trip id="car390" depart="519.00" from="GowSt_2_1" to="GorSq_1_3"/>
    <trip id="car391" depart="520.00" from="GowSt_1_1" to="TorPl_2_4"/>
    <trip id="car392" depart="520.00" from="GowSt_1_1" to="GorSq_1_3"/>
    <trip id="car393" depart="524.00" from="CheMe_1_1" to="TorPl_2_4"/>
    <trip id="car394" depart="525.00" from="GowSt_1_1" to="GowSt_1_2"/>
    <trip id="car395" depart="531.00" from="GowSt_1_1" to="GowSt_1_2"/>
    <trip id="car396" depart="531.00" from="GowSt_1_1" to="GorSq_1_3"/>
    <trip id="car397" depart="531.00" from="MalSt_2_1" to="GorSq_1_3"/>
    <trip id="car398" depart="532.00" from="GowSt_2_1" to="TorPl_2_4"/>
    <trip id="car399" depart="535.00" from="GowSt_1_1" to="TorPl_2_4"/>
    <trip id="car400" depart="536.00" from="CheMe_1_1" to="TorPl_2_4"/>
    <trip id="car401" depart="536.00" from="GowSt_2_1" to="GorSq_1_3"/>
    <trip id="car402" depart="537.00" from="GowSt_2_1" to="GowSt_2_2"/>
    <trip id="car403" depart="537.00" from="GowSt_1_1" to="TorPl_2_4"/>