<?xml version="1.0" encoding="UTF-8"?>

<!-- generated on 2025-11-24 09:30:00.223139 by randomTrips.py v1_24_0+0000-b72eb3fabc8
<configuration>
    <net-file value="../networks/demo/main.net.xml"/>
    <output-trip-file value="../routes/demo/car.trips.xml"/>
    <route-file value="../routes/demo/car.rou.xml"/>
    <prefix value="car"/>
    <fringe-factor value="max"/>
    <seed value="140"/>
    <period value="10.0"/>
    <binomial value="100"/>
</configuration>
-->

<routes xmlns:xsi="http://www.w3.org/2001/XMLSchema-instance" xsi:noNamespaceSchemaLocation="http://sumo.dlr.de/xsd/routes_file.xsd">
    <trip id="car0" depart="12.00" from="MalSt_2_1" to="GorSq_1_3"/>
    <trip id="car1" depart="30.00" from="RidGa_2_1" to="TorPl_2_5"/>
    <trip id="car2" depart="49.00" from="MalSt_2_1" to="GorSq_2_3"/>
    <trip id="car3" depart="50.00" from="HunSt_1_1" to="TorPl_2_5"/>
    <trip id="car4" depart="55.00" from="HunSt_1_1" to="TorPl_2_5"/>
    <trip id="car5" depart="60.00" from="CheMe_1_1" to="HunSt_1_2"/>
    <trip id="car6" depart="84.00" from="CheMe_1_1" to="HunSt_1_2"/>
    <trip id="car7" depart="85.00" from="GowSt_1_1" to="HunSt_1_2"/>
    <trip id="car8" depart="87.00" from="GowSt_2_1" to="GorSq_2_3"/>
    <trip id="car9" depart="118.00" from="HunSt_1_1" to="TorPl_2_5"/>
    <trip id="car10" depart="118.00" from="CheMe_1_1" to="HunSt_1_2"/>
    <trip id="car11" depart="127.00" from="GowSt_2_1" to="HunSt_1_2"/>
    <trip id="car12" depart="132.00" from="GowSt_1_1" to="GowSt_1_3"/>
    <trip id="car13" depart="139.00" from="GowSt_1_1" to="GowSt_1_3"/>
    <trip id="car14" depart="156.00" from="GowSt_2_1" to="HunSt_1_2"/>
    <trip id="car15" depart="177.00" from="GowSt_1_1" to="GorSq_1_3"/>
    <trip id="car16" depart="198.00" from="HunSt_1_1" to="TorPl_2_5"/>
    <trip id="car17" depart="203.00" from="RidGa_2_1" to="TorPl_2_5"/>
    <trip id="car18" depart="209.00" from="GowSt_1_1" to="GowSt_1_3"/>
    <trip id="car19" depart="238.00" from="MalSt_2_1" to="GorSq_1_3"/>
    <trip id="car20" depart="239.00" from="GowSt_1_1" to="GowSt_1_3"/>
    <trip id="car21" depart="240.00" from="MalSt_2_1" to="GorSq_1_3"/>
    <trip id="car22" depart="244.00" from="GowSt_1_1" to="GorSq_1_3"/>
    <trip id="car23" depart="258.00" from="HunSt_1_1" to="TorPl_2_5"/>
    <trip id="car24" depart="258.00" from="HunSt_1_1" to="HunSt_1_2"/>
    <trip id="car25" depart="270.00" from="GowSt_2_1" to="GowSt_2_3"/>
    <trip id="car26" depart="273.00" from="GorSq_1_1" to="GorSq_1_3"/>
    <trip id="car27" depart="290.00" from="GowSt_1_1" to="GowSt_1_3"/>
    <trip id="car28" depart="296.00" from="GowSt_2_1" to="HunSt_1_2"/>
    <trip id="car29" depart="304.00" from="GowSt_1_1" to="GorSq_2_3"/>
    <trip id="car30" depart="308.00" from="GowSt_1_1" to="GowSt_1_3"/>
    <trip id="car31" depart="316.00" from="HunSt_1_1" to="HunSt_1_2"/>
    <trip id="car32" depart="332.00" from="GowSt_1_1" to="GorSq_2_3"/>
    <trip id="car33" depart="352.00" from="HunSt_1_1" to="TorPl_2_5"/>
    <trip id="car34" depart="369.00" from="RidGa_2_1" to="HunSt_1_2"/>
    <trip id="car35" depart="377.00" from="GowSt_2_1" to="GorSq_1_3"/>
    <trip id="car36" depart="388.00" from="GowSt_1_1" to="GowSt_1_3"/>
    <trip id="car37" depart="406.00" from="RidGa_2_1" to="TorPl_2_5"/>
    <trip id="car38" depart="420.00" from="CheMe_1_1" to="HunSt_1_2"/>
    <trip id="car39" depart="421.00" from="HunSt_1_1" to="TorPl_2_5"/>
    <trip id="car40" depart="426.00" from="GowSt_1_1" to="HunSt_1_2"/>
    <trip id="car41" depart="427.00" from="CheMe_1_1" to="HunSt_1_2"/>
    <trip id="car42" depart="427.00" from="HunSt_1_1" to="HunSt_1_2"/>
    <trip id="car43" depart="428.00" from="RidGa_2_1" to="TorPl_2_5"/>
    <trip id="car44" depart="438.00" from="HunSt_1_1" to="TorPl_2_5"/>
    <trip id="car45" depart="448.00" from="GowSt_1_1" to="HunSt_1_2"/>
    <trip id="car46" depart="449.00" from="GorSq_1_1" to="GorSq_1_3"/>
    <trip id="car47" depart="473.00" from="GowSt_1_1" to="GorSq_2_3"/>
    <trip id="car48" depart="487.00" from="GowSt_2_1" to="GorSq_2_3"/>
    <trip id="car49" depart="500.00" from="CheMe_1_1" to="TorPl_2_5"/>
    <trip id="car50" depart="514.00" from="GowSt_1_1" to="GorSq_2_3"/>
    <trip id="car51" depart="521.00" from="RidGa_2_1" to="TorPl_2_5"/>
    <trip id="car52" depart="524.00" from="GowSt_2_1" to="GorSq_1_3"/>
    <trip id="car53" depart="532.00" from="GowSt_2_1" to="GorSq_1_3"/>
    <trip id="car54" depart="533.00" from="RidGa_2_1" to="HunSt_1_2"/>
    <trip id="car55" depart="540.00" from="GowSt_1_1" to="HunSt_1_2"/>
    <trip id="car56" depart="542.00" from="GowSt_2_1" to="TorPl_2_5"/>
    <trip id="car57" depart="579.00" from="GowSt_2_1" to="GorSq_2_3"/>
    <trip id="car58" depart="595.00" from="CheMe_1_1" to="HunSt_1_2"/>
    <trip id="car59" depart="605.00" from="GowSt_2_1" to="GowSt_2_3"/>
    <trip id="car60" depart="607.00" from="HunSt_1_1" to="TorPl_2_5"/>
    <trip id="car61" depart="613.00" from="GowSt_2_1" to="GowSt_2_3"/>
    <trip id="car62" depart="619.00" from="GowSt_2_1" to="GowSt_2_3"/>
    <trip id="car63" depart="650.00" from="RidGa_2_1" to="HunSt_1_2"/>
    <trip id="car64" depart="659.00" from="CheMe_1_1" to="HunSt_1_2"/>
    <trip id="car65" depart="679.00" from="GowSt_1_1" to="GorSq_1_3"/>
    <trip id="car66" depart="680.00" from="RidGa_2_1" to="TorPl_2_5"/>
    <trip id="car67" depart="682.00" from="MalSt_2_1" to="GorSq_1_3"/>
    <trip id="car68" depart="697.00" from="GowSt_2_1" to="GowSt_2_3"/>
    <trip id="car69" depart="701.00" from="GorSq_1_1" to="GorSq_1_3"/>
    <trip id="car70" depart="709.00" from="MalSt_2_1" to="GorSq_1_3"/>
    <trip id="car71" depart="709.00" from="HunSt_1_1" to="TorPl_2_5"/>
    <trip id="car72" depart="738.00" from="GowSt_1_1" to="HunSt_1_2"/>
    <trip id="car73" depart="758.00" from="GowSt_2_1" to="GowSt_2_3"/>
    <trip id="car74" depart="765.00" from="GowSt_2_1" to="GorSq_1_3"/>
    <trip id="car75" depart="779.00" from="GowSt_2_1" to="GorSq_2_3"/>
    <trip id="car76" depart="812.00" from="GowSt_1_1" to="GorSq_1_3"/>
    <trip id="car77" depart="815.00" from="GowSt_1_1" to="GowSt_1_3"/>
    <trip id="car78" depart="821.00" from="GorSq_1_1" to="GorSq_1_3"/>
    <trip id="car79" depart="825.00" from="HunSt_1_1" to="TorPl_2_5"/>
    <trip id="car80" depart="832.00" from="CheMe_1_1" to="HunSt_1_2"/>
    <trip id="car81" depart="848.00" from="GowSt_1_1" to="GorSq_1_3"/>
    <trip id="car82" depart="851.00" from="MalSt_2_1" to="GorSq_1_3"/>
    <trip id="car83" depart="876.00" from="CheMe_1_1" to="HunSt_1_2"/>
    <trip id="car84" depart="876.00" from="CheMe_1_1" to="HunSt_1_2"/>
    <trip id="car85" depart="877.00" from="GowSt_1_1" to="TorPl_2_5"/>
    <trip id="car86" depart="895.00" from="HunSt_1_1" to="TorPl_2_5"/>
    <trip id="car87" depart="900.00" from="GowSt_1_1" to="HunSt_1_2"/>
    <trip id="car88" depart="916.00" from="GowSt_2_1" to="HunSt_1_2"/>
    <trip id="car89" depart="921.00" from="GowSt_1_1" to="GorSq_1_3"/>
    <trip id="car90" depart="930.00" from="GowSt_1_1" to="GorSq_1_3"/>
    <trip id="car91" depart="941.00" from="GowSt_1_1" to="GorSq_2_3"/>
    <trip id="car92" depart="942.00" from="GowSt_1_1" to="TorPl_2_5"/>
    <trip id="car93" depart="943.00" from="MalSt_2_1" to="GorSq_2_3"/>
    <trip id="car94" depart="944.00" from="GowSt_1_1" to="GorSq_2_3"/>
    <trip id="car95" depart="949.00" from="MalSt_2_1" to="GorSq_1_3"/>
    <trip id="car96" depart="951.00" from="GowSt_2_1" to="GowSt_2_3"/>
    <trip id="car97" depart="952.00" from="CheMe_1_1" to="HunSt_1_2"/>
    <trip id="car98" depart="977.00" from="CheMe_1_1" to="HunSt_1_2"/>
    <trip id="car99" depart="1005.00" from="GowSt_2_1" to="GorSq_1_3"/>
    <trip id="car100" depart="1055.00" from="GowSt_1_1" to="GorSq_1_3"/>
    <trip id="car101" depart="1061.00" from="CheMe_1_1" to="HunSt_1_2"/>
    <trip id="car102" depart="1068.00" from="GowSt_2_1" to="GowSt_2_3"/>
    <trip id="car103" depart="1078.00" from="GowSt_1_1" to="HunSt_1_2"/>
    <trip id="car104" depart="1082.00" from="GorSq_1_1" to="GorSq_1_3"/>
    <trip id="car105" depart="1087.00" from="MalSt_2_1" to="GorSq_1_3"/>
    <trip id="car106" depart="1090.00" from="GowSt_2_1" to="GorSq_1_3"/>
    <trip id="car107" depart="1098.00" from="GowSt_2_1" to="GorSq_2_3"/>
    <trip id="car108" depart="1100.00" from="RidGa_2_1" to="HunSt_1_2"/>
    <trip id="car109" depart="1113.00" from="GowSt_2_1" to="HunSt_1_2"/>
    <trip id="car110" depart="1114.00" from="MalSt_2_1" to="GorSq_1_3"/>
    <trip id="car111" depart="1127.00" from="HunSt_1_1" to="TorPl_2_5"/>
    <trip id="car112" depart="1129.00" from="GowSt_1_1" to="HunSt_1_2"/>
    <trip id="car113" depart="1149.00" from="RidGa_2_1" to="HunSt_1_2"/>
    <trip id="car114" depart="1162.00" from="HunSt_1_1" to="TorPl_2_5"/>
    <trip id="car115" depart="1164.00" from="GowSt_1_1" to="GorSq_1_3"/>
    <trip id="car116" depart="1174.00" from="GowSt_2_1" to="GowSt_2_3"/>
    <trip id="car117" depart="1212.00" from="GowSt_2_1" to="HunSt_1_2"/>
    <trip id="car118" depart="1214.00" from="GorSq_1_1" to="GorSq_1_3"/>
    <trip id="car119" depart="1218.00" from="GowSt_2_1" to="GorSq_1_3"/>
    <trip id="car120" depart="1219.00" from="GowSt_1_1" to="GowSt_1_3"/>
    <trip id="car121" depart="1231.00" from="CheMe_1_1" to="HunSt_1_2"/>
    <trip id="car122" depart="1234.00" from="GowSt_1_1" to="HunSt_1_2"/>
    <trip id="car123" depart="1262.00" from="GorSq_1_1" to="GorSq_1_3"/>
    <trip id="car124" depart="1268.00" from="GowSt_2_1" to="GowSt_2_3"/>
    <trip id="car125" depart="1271.00" from="HunSt_1_1" to="HunSt_1_2"/>
    <trip id="car126" depart="1275.00" from="HunSt_1_1" to="HunSt_1_2"/>
    <trip id="car127" depart="1283.00" from="GowSt_1_1" to="GorSq_1_3"/>
    <trip id="car128" depart="1291.00" from="RidGa_2_1" to="TorPl_2_5"/>
    <trip id="car129" depart="1291.00" from="RidGa_2_1" to="TorPl_2_5"/>
    <trip id="car130" depart="1295.00" from="GowSt_1_1" to="GorSq_2_3"/>
    <trip id="car131" depart="1295.00" from="MalSt_2_1" to="GorSq_2_3"/>
    <trip id="car132" depart="1298.00" from="GowSt_1_1" to="GowSt_1_3"/>
    <trip id="car133" depart="1308.00" from="MalSt_2_1" to="GorSq_2_3"/>
    <trip id="car134" depart="1310.00" from="GowSt_2_1" to="GorSq_1_3"/>
    <trip id="car135" depart="1311.00" from="CheMe_1_1" to="HunSt_1_2"/>
    <trip id="car136" depart="1312.00" from="GowSt_2_1" to="TorPl_2_5"/>
    <trip id="car137" depart="1326.00" from="GowSt_1_1" to="TorPl_2_5"/>
    <trip id="car138" depart="1329.00" from="CheMe_1_1" to="TorPl_2_5"/>
    <trip id="car139" depart="1339.00" from="GowSt_2_1" to="GowSt_2_3"/>
    <trip id="car140" depart="1342.00" from="GowSt_2_1" to="HunSt_1_2"/>
    <trip id="car141" depart="1347.00" from="GorSq_1_1" to="GorSq_1_3"/>
    <trip id="car142" depart="1367.00" from="GowSt_2_1" to="GorSq_2_3"/>
    <trip id="car143" depart="1393.00" from="CheMe_1_1" to="HunSt_1_2"/>
    <trip id="car144" depart="1397.00" from="RidGa_2_1" to="HunSt_1_2"/>
    <trip id="car145" depart="1411.00" from="GowSt_1_1" to="GowSt_1_3"/>
    <trip id="car146" depart="1413.00" from="MalSt_2_1" to="GorSq_2_3"/>
    <trip id="car147" depart="1441.00" from="RidGa_2_1" to="HunSt_1_2"/>
    <trip id="car148" depart="1450.00" from="GowSt_2_1" to="GorSq_1_3"/>
    <trip id="car149" depart="1451.00" from="GowSt_1_1" to="HunSt_1_2"/>
    <trip id="car150" depart="1453.00" from="RidGa_2_1" to="HunSt_1_2"/>
    <trip id="car151" depart="1455.00" from="GowSt_2_1" to="GorSq_2_3"/>
    <trip id="car152" depart="1479.00" from="GowSt_2_1" to="TorPl_2_5"/>
    <trip id="car153" depart="1484.00" from="MalSt_2_1" to="GorSq_1_3"/>
    <trip id="car154" depart="1500.00" from="MalSt_2_1" to="GorSq_2_3"/>
    <trip id="car155" depart="1505.00" from="CheMe_1_1" to="TorPl_2_5"/>
    <trip id="car156" depart="1537.00" from="GorSq_1_1" to="GorSq_1_3"/>
    <trip id="car157" depart="1537.00" from="GowSt_2_1" to="GorSq_2_3"/>
    <trip id="car158" depart="1568.00" from="GowSt_2_1" to="GorSq_2_3"/>
    <trip id="car159" depart="1586.00" from="GowSt_1_1" to="GowSt_1_3"/>
    <trip id="car160" depart="1587.00" from="RidGa_2_1" to="TorPl_2_5"/>
    <trip id="car161" depart="1590.00" from="HunSt_1_1" to="HunSt_1_2"/>
    <trip id="car162" depart="1595.00" from="GorSq_1_1" to="GorSq_1_3"/>
    <trip id="car163" depart="1595.00" from="RidGa_2_1" to="TorPl_2_5"/>
    <trip id="car164" depart="1606.00" from="GowSt_2_1" to="TorPl_2_5"/>
    <trip id="car165" depart="1608.00" from="GowSt_2_1" to="GorSq_1_3"/>
    <trip id="car166" depart="1626.00" from="GowSt_2_1" to="TorPl_2_5"/>
    <trip id="car167" depart="1637.00" from="GowSt_2_1" to="GorSq_1_3"/>
    <trip id="car168" depart="1640.00" from="GowSt_1_1" to="TorPl_2_5"/>
    <trip id="car169" depart="1655.00" from="HunSt_1_1" to="HunSt_1_2"/>
    <trip id="car170" depart="1663.00" from="GowSt_2_1" to="GowSt_2_3"/>
    <trip id="car171" depart="1668.00" from="GowSt_1_1" to="HunSt_1_2"/>
    <trip id="car172" depart="1678.00" from="CheMe_1_1" to="TorPl_2_5"/>
    <trip id="car173" depart="1684.00" from="GorSq_1_1" to="GorSq_1_3"/>
    <trip id="car174" depart="1690.00" from="HunSt_1_1" to="HunSt_1_2"/>
    <trip id="car175" depart="1693.00" from="GowSt_2_1" to="GowSt_2_3"/>
    <trip id="car176" depart="1699.00" from="HunSt_1_1" to="TorPl_2_5"/>
    <trip id="car177" depart="1708.00" from="GorSq_1_1" to="GorSq_1_3"/>
    <trip id="car178" depart="1711.00" from="GowSt_1_1" to="HunSt_1_2"/>
    <trip id="car179" depart="1724.00" from="MalSt_2_1" to="GorSq_1_3"/>
    <trip id="car180" depart="1738.00" from="GowSt_1_1" to="TorPl_2_5"/>
    <trip id="car181" depart="1755.00" from="RidGa_2_1" to="HunSt_1_2"/>
    <trip id="car182" depart="1790.00" from="RidGa_2_1" to="TorPl_2_5"/>
    <trip id="car183" depart="1808.00" from="GowSt_1_1" to="GowSt_1_3"/>
    <trip id="car184" depart="1817.00" from="HunSt_1_1" to="TorPl_2_5"/>
    <trip id="car185" depart="1834.00" from="MalSt_2_1" to="GorSq_1_3"/>
    <trip id="car186" depart="1859.00" from="HunSt_1_1" to="HunSt_1_2"/>
    <trip id="car187" depart="1863.00" from="CheMe_1_1" to="TorPl_2_5"/>
    <trip id="car188" depart="1867.00" from="MalSt_2_1" to="GorSq_1_3"/>
    <trip id="car189" depart="1874.00" from="MalSt_2_1" to="GorSq_1_3"/>
    <trip id="car190" depart="1875.00" from="RidGa_2_1" to="HunSt_1_2"/>
    <trip id="car191" depart="1895.00" from="GowSt_1_1" to="GowSt_1_3"/>
    <trip id="car192" depart="1908.00" from="GowSt_1_1" to="TorPl_2_5"/>
    <trip id="car193" depart="1918.00" from="HunSt_1_1" to="HunSt_1_2"/>
    <trip id="car194" depart="1923.00" from="GowSt_1_1" to="HunSt_1_2"/>
    <trip id="car195" depart="1923.00" from="GorSq_1_1" to="GorSq_1_3"/>
    <trip id="car196" depart="1952.00" from="GowSt_1_1" to="TorPl_2_5"/>
    <trip id="car197" depart="1963.00" from="CheMe_1_1" to="TorPl_2_5"/>
    <trip id="car198" depart="1984.00" from="GowSt_1_1" to="GowSt_1_3"/>
    <trip id="car199" depart="1986.00" from="RidGa_2_1" to="TorPl_2_5"/>
    <trip id="car200" depart="1988.00" from="HunSt_1_1" to="HunSt_1_2"/>
    <trip id="car201" depart="1991.00" from="GowSt_1_1" to="TorPl_2_5"/>
    <trip id="car202" depart="2014.00" from="HunSt_1_1" to="HunSt_1_2"/>
    <trip id="car203" depart="2017.00" from="GowSt_2_1" to="GowSt_2_3"/>
    <trip id="car204" depart="2025.00" from="RidGa_2_1" to="HunSt_1_2"/>
    <trip id="car205" depart="2028.00" from="GowSt_1_1" to="HunSt_1_2"/>
    <trip id="car206" depart="2051.00" from="HunSt_1_1" to="HunSt_1_2"/>
    <trip id="car207" depart="2054.00" from="GowSt_1_1" to="TorPl_2_5"/>
    <trip id="car208" depart="2056.00" from="HunSt_1_1" to="HunSt_1_2"/>
    <trip id="car209" depart="2060.00" from="GowSt_1_1" to="HunSt_1_2"/>
    <trip id="car210" depart="2062.00" from="GowSt_1_1" to="TorPl_2_5"/>
    <trip id="car211" depart="2064.00" from="GowSt_2_1" to="GowSt_2_3"/>
    <trip id="car212" depart="2068.00" from="MalSt_2_1" to="GorSq_1_3"/>
    <trip id="car213" depart="2075.00" from="GorSq_1_1" to="GorSq_1_3"/>
    <trip id="car214" depart="2110.00" from="GowSt_2_1" to="GorSq_1_3"/>
    <trip id="car215" depart="2116.00" from="HunSt_1_1" to="TorPl_2_5"/>
    <trip id="car216" depart="2126.00" from="GorSq_1_1" to="GorSq_1_3"/>
    <trip id="car217" depart="2133.00" from="RidGa_2_1" to="HunSt_1_2"/>
    <trip id="car218" depart="2146.00" from="GowSt_2_1" to="HunSt_1_2"/>
    <trip id="car219" depart="2159.00" from="GowSt_1_1" to="GorSq_2_3"/>
    <trip id="car220" depart="2165.00" from="CheMe_1_1" to="TorPl_2_5"/>
    <trip id="car221" depart="2166.00" from="MalSt_2_1" to="GorSq_2_3"/>
    <trip id="car222" depart="2175.00" from="HunSt_1_1" to="TorPl_2_5"/>
    <trip id="car223" depart="2175.00" from="GowSt_1_1" to="HunSt_1_2"/>
    <trip id="car224" depart="2189.00" from="GowSt_1_1" to="TorPl_2_5"/>
    <trip id="car225" depart="2193.00" from="GorSq_1_1" to="GorSq_1_3"/>
    <trip id="car226" depart="2204.00" from="GowSt_2_1" to="TorPl_2_5"/>
    <trip id="car227" depart="2211.00" from="GowSt_1_1" to="HunSt_1_2"/>
    <trip id="car228" depart="2217.00" from="GowSt_1_1" to="GorSq_1_3"/>
    <trip id="car229" depart="2236.00" from="CheMe_1_1" to="HunSt_1_2"/>
    <trip id="car230" depart="2246.00" from="GowSt_2_1" to="HunSt_1_2"/>
    <trip id="car231" depart="2303.00" from="GowSt_1_1" to="GorSq_1_3"/>
    <trip id="car232" depart="2313.00" from="GowSt_2_1" to="HunSt_1_2"/>
    <trip id="car233" depart="2337.00" from="HunSt_1_1" to="HunSt_1_2"/>
    <trip id="car234" depart="2399.00" from="GowSt_1_1" to="HunSt_1_2"/>
    <trip id="car235" depart="2407.00" from="CheMe_1_1" to="TorPl_2_5"/>
    <trip id="car236" depart="2408.00" from="MalSt_2_1" to="GorSq_1_3"/>
    <trip id="car237" depart="2419.00" from="GowSt_1_1" to="TorPl_2_5"/>
    <trip id="car238" depart="2430.00" from="HunSt_1_1" to="HunSt_1_2"/>
    <trip id="car239" depart="2446.00" from="GowSt_2_1" to="TorPl_2_5"/>
    <trip id="car240" depart="2447.00" from="GowSt_1_1" to="GorSq_1_3"/>
    <trip id="car241" depart="2498.00" from="GowSt_1_1" to="TorPl_2_5"/>
    <trip id="car242" depart="2500.00" from="GowSt_2_1" to="TorPl_2_5"/>
    <trip id="car243" depart="2528.00" from="HunSt_1_1" to="HunSt_1_2"/>
    <trip id="car244" depart="2531.00" from="GowSt_2_1" to="GorSq_2_3"/>
    <trip id="car245" depart="2533.00" from="RidGa_2_1" to="HunSt_1_2"/>
    <trip id="car246" depart="2541.00" from="HunSt_1_1" to="HunSt_1_2"/>
    <trip id="car247" depart="2546.00" from="GowSt_2_1" to="GowSt_2_3"/>
    <trip id="car248" depart="2556.00" from="GowSt_1_1" to="HunSt_1_2"/>
    <trip id="car249" depart="2567.00" from="GowSt_1_1" to="TorPl_2_5"/>
    <trip id="car250" depart="2568.00" from="CheMe_1_1" to="TorPl_2_5"/>
    <trip id="car251" depart="2569.00" from="GowSt_1_1" to="GowSt_1_3"/>
    <trip id="car252" depart="2572.00" from="GowSt_1_1" to="HunSt_1_2"/>
    <trip id="car253" depart="2581.00" from="HunSt_1_1" to="TorPl_2_5"/>
    <trip id="car254" depart="2581.00" from="CheMe_1_1" to="HunSt_1_2"/>
    <trip id="car255" depart="2604.00" from="CheMe_1_1" to="HunSt_1_2"/>
    <trip id="car256" depart="2606.00" from="CheMe_1_1" to="TorPl_2_5"/>
    <trip id="car257" depart="2623.00" from="MalSt_2_1" to="GorSq_1_3"/>
    <trip id="car258" depart="2631.00" from="GowSt_1_1" to="GorSq_1_3"/>
    <trip id="car259" depart="2697.00" from="GowSt_1_1" to="GorSq_1_3"/>
    <trip id="car260" depart="2704.00" from="HunSt_1_1" to="TorPl_2_5"/>
    <trip id="car261" depart="2711.00" from="HunSt_1_1" to="TorPl_2_5"/>
    <trip id="car262" depart="2713.00" from="CheMe_1_1" to="TorPl_2_5"/>
    <trip id="car263" depart="2715.00" from="RidGa_2_1" to="TorPl_2_5"/>
    <trip id="car264" depart="2717.00" from="GowSt_1_1" to="TorPl_2_5"/>
    <trip id="car265" depart="2726.00" from="GowSt_1_1" to="TorPl_2_5"/>
    <trip id="car266" depart="2731.00" from="HunSt_1_1" to="HunSt_1_2"/>
    <trip id="car267" depart="2740.00" from="MalSt_2_1" to="GorSq_2_3"/>
    <trip id="car268" depart="2754.00" from="GowSt_2_1" to="GorSq_2_3"/>
    <trip id="car269" depart="2759.00" from="RidGa_2_1" to="TorPl_2_5"/>
    <trip id="car270" depart="2764.00" from="GowSt_1_1" to="HunSt_1_2"/>
    <trip id="car271" depart="2785.00" from="CheMe_1_1" to="TorPl_2_5"/>
    <trip id="car272" depart="2801.00" from="GowSt_2_1" to="GowSt_2_3"/>
    <trip id="car273" depart="2828.00" from="RidGa_2_1" to="TorPl_2_5"/>
    <trip id="car274" depart="2831.00" from="GowSt_1_1" to="TorPl_2_5"/>
    <trip id="car275" depart="2865.00" from="CheMe_1_1" to="TorPl_2_5"/>
    <trip id="car276" depart="2873.00" from="RidGa_2_1" to="TorPl_2_5"/>
    <trip id="car277" depart="2881.00" from="CheMe_1_1" to="TorPl_2_5"/>
    <trip id="car278" depart="2885.00" from="CheMe_1_1" to="TorPl_2_5"/>
    <trip id="car279" depart="2888.00" from="HunSt_1_1" to="TorPl_2_5"/>
    <trip id="car280" depart="2910.00" from="HunSt_1_1" to="TorPl_2_5"/>
    <trip id="car281" depart="2913.00" from="GowSt_1_1" to="GorSq_2_3"/>
    <trip id="car282" depart="2914.00" from="GowSt_1_1" to="TorPl_2_5"/>
    <trip id="car283" depart="2925.00" from="GowSt_2_1" to="GorSq_2_3"/>
    <trip id="car284" depart="2939.00" from="GorSq_1_1" to="GorSq_1_3"/>
    <trip id="car285" depart="2987.00" from="GowSt_1_1" to="TorPl_2_5"/>
    <trip id="car286" depart="2999.00" from="GorSq_1_1" to="GorSq_1_3"/>
    <trip id="car287" depart="3002.00" from="GowSt_2_1" to="GowSt_2_3"/>
    <trip id="car288" depart="3003.00" from="GorSq_1_1" to="GorSq_1_3"/>
    <trip id="car289" depart="3022.00" from="GowSt_1_1" to="GorSq_1_3"/>
    <trip id="car290" depart="3046.00" from="CheMe_1_1" to="TorPl_2_5"/>
    <trip id="car291" depart="3054.00" from="MalSt_2_1" to="GorSq_1_3"/>
    <trip id="car292" depart="3055.00" from="GowSt_1_1" to="TorPl_2_5"/>
    <trip id="car293" depart="3078.00" from="GowSt_1_1" to="GowSt_1_3"/>
    <trip id="car294" depart="3086.00" from="CheMe_1_1" to="TorPl_2_5"/>
    <trip id="car295" depart="3129.00" from="CheMe_1_1" to="HunSt_1_2"/>
    <trip id="car296" depart="3134.00" from="HunSt_1_1" to="TorPl_2_5"/>
    <trip id="car297" depart="3148.00" from="GowSt_2_1" to="GowSt_2_3"/>
    <trip id="car298" depart="3157.00" from="GowSt_2_1" to="HunSt_1_2"/>
    <trip id="car299" depart="3158.00" from="GowSt_2_1" to="HunSt_1_2"/>
    <trip id="car300" depart="3158.00" from="MalSt_2_1" to="GorSq_2_3"/>
    <trip id="car301" depart="3162.00" from="GowSt_2_1" to="HunSt_1_2"/>
    <trip id="car302" depart="3163.00" from="GorSq_1_1" to="GorSq_1_3"/>
    <trip id="car303" depart="3165.00" from="GowSt_2_1" to="HunSt_1_2"/>
    <trip id="car304" depart="3176.00" from="GorSq_1_1" to="GorSq_1_3"/>
    <trip id="car305" depart="3192.00" from="GowSt_1_1" to="GorSq_1_3"/>
    <trip id="car306" depart="3211.00" from="GowSt_2_1" to="HunSt_1_2"/>
    <trip id="car307" depart="3214.00" from="GowSt_1_1" to="GorSq_1_3"/>
    <trip id="car308" depart="3222.00" from="GowSt_1_1" to="GowSt_1_3"/>
    <trip id="car309" depart="3223.00" from="HunSt_1_1" to="HunSt_1_2"/>
    <trip id="car310" depart="3232.00" from="GowSt_2_1" to="GorSq_2_3"/>
    <trip id="car311" depart="3247.00" from="GowSt_1_1" to="GowSt_1_3"/>
    <trip id="car312" depart="3265.00" from="CheMe_1_1" to="TorPl_2_5"/>
    <trip id="car313" depart="3292.00" from="CheMe_1_1" to="HunSt_1_2"/>
    <trip id="car314" depart="3314.00" from="MalSt_2_1" to="GorSq_1_3"/>
    <trip id="car315" depart="3319.00" from="HunSt_1_1" to="HunSt_1_2"/>
    <trip id="car316" depart="3329.00" from="GowSt_1_1" to="GorSq_1_3"/>
    <trip id="car317" depart="3332.00" from="MalSt_2_1" to="GorSq_2_3"/>
    <trip id="car318" depart="3339.00" from="RidGa_2_1" to="HunSt_1_2"/>
    <trip id="car319" depart="3339.00" from="GowSt_1_1" to="GorSq_1_3"/>
    <trip id="car320" depart="3341.00" from="GowSt_1_1" to="GowSt_1_3"/>
    <trip id="car321" depart="3342.00" from="RidGa_2_1" to="TorPl_2_5"/>
    <trip id="car322" depart="3342.00" from="GowSt_2_1" to="GorSq_2_3"/>
    <trip id="car323" depart="3355.00" from="GowSt_2_1" to="TorPl_2_5"/>
    <trip id="car324" depart="3368.00" from="MalSt_2_1" to="GorSq_1_3"/>
    <trip id="car325" depart="3376.00" from="GowSt_2_1" to="HunSt_1_2"/>
    <trip id="car326" depart="3382.00" from="MalSt_2_1" to="GorSq_2_3"/>
    <trip id="car327" depart="3400.00" from="RidGa_2_1" to="TorPl_2_5"/>
    <trip id="car328" depart="3414.00" from="GowSt_2_1" to="GorSq_1_3"/>
    <trip id="car329" depart="3464.00" from="GowSt_1_1" to="GorSq_2_3"/>
    <trip id="car330" depart="3475.00" from="CheMe_1_1" to="TorPl_2_5"/>
    <trip id="car331" depart="3480.00" from="HunSt_1_1" to="HunSt_1_2"/>
    <trip id="car332" depart="3499.00" from="GowSt_1_1" to="GorSq_2_3"/>
    <trip id="car333" depart="3517.00" from="GowSt_2_1" to="GorSq_1_3"/>
    <trip id="car334" depart="3527.00" from="CheMe_1_1" to="TorPl_2_5"/>
    <trip id="car335" depart="3530.00" from="GowSt_2_1" to="GorSq_2_3"/>
    <trip id="car336" depart="3535.00" from="RidGa_2_1" to="TorPl_2_5"/>
    <trip id="car337" depart="3540.00" from="HunSt_1_1" to="TorPl_2_5"/>
    <trip id="car338" depart="3545.00" from="GowSt_1_1" to="GorSq_1_3"/>
    <trip id="car339" depart="3554.00" from="GowSt_2_1" to="GorSq_1_3"/>
    <trip id="car340" depart="3558.00" from="GowSt_2_1" to="TorPl_2_5"/>
    <trip id="car341" depart="3564.00" from="HunSt_1_1" to="HunSt_1_2"/>
    <trip id="car342" depart="3574.00" from="GowSt_1_1" to="HunSt_1_2"/>
    <trip id="car343" depart="3575.00" from="CheMe_1_1" to="HunSt_1_2"/>
    <trip id="car344" depart="3587.00" from="GowSt_1_1" to="HunSt_1_2"/>
</routes>
