<?xml version="1.0" encoding="UTF-8"?>

<!-- generated on 2025-11-24 11:24:02.590659 by Eclipse SUMO randomTrips.py UNKNOWN
<configuration>
    <net-file value="../networks/demo/main.net.xml"/>
    <output-trip-file value="../routes/demo/4/car.trips.xml"/>
    <route-file value="../routes/demo/4/car.rou.xml"/>
    <prefix value="car"/>
    <fringe-factor value="max"/>
    <seed value="4"/>
    <period value="10.0"/>
    <binomial value="100"/>
</configuration>
-->

<!-- generated on 2025-11-24T11:24:02.584356+00:00 by Eclipse SUMO duarouter 1.25.0
<duarouterConfiguration xmlns:xsi="http://www.w3.org/2001/XMLSchema-instance" xsi:noNamespaceSchemaLocation="http://sumo.dlr.de/xsd/duarouterConfiguration.xsd">

    <input>
        <net-file value="../networks/demo/main.net.xml"/>
        <route-files value="../routes/demo/4/car.trips.xml"/>
    </input>

    <output>
        <output-file value="../routes/demo/4/car.rou.xml"/>
        <alternatives-output value="NUL"/>
    </output>

    <time>
        <begin value="0"/>
        <end value="3600.0"/>
    </time>

    <report>
        <no-warnings value="true"/>
        <ignore-errors value="true"/>
        <no-step-log value="true"/>
    </report>

</duarouterConfiguration>
-->

<routes xmlns:xsi="http://www.w3.org/2001/XMLSchema-instance" xsi:noNamespaceSchemaLocation="http://sumo.dlr.de/xsd/routes_file.xsd">
    <vehicle id="car0" depart="9.00">
        <route edges="GowSt_1_1 GowSt_1_2 TorPl_2_3 TorPl_2_4 HunSt_1_2"/>
    </vehicle>
    <vehicle id="car1" depart="15.00">
        <route edges="RidGa_2_1 TorPl_2_4 HunSt_1_2"/>
    </vehicle>
    <vehicle id="car2" depart="36.00">
        <route edges="GowSt_1_1 GowSt_1_2 TorPl_1_5 BynPl_1_1 BynPl_1_2 BynPl_1_3 GorSq_2_3"/>
    </vehicle>
    <vehicle id="car3" depart="44.00">
        <route edges="GorSq_1_1 GorSq_1_2 GorSq_1_3"/>
    </vehicle>
    <vehicle id="car4" depart="47.00">
        <route edges="GowSt_2_1 GowSt_2_2 TorPl_2_3 TorPl_2_4 HunSt_1_2"/>
    </vehicle>
    <vehicle id="car5" depart="65.00">
        <route edges="GowSt_1_1 GowSt_1_2 TorPl_2_3 TorPl_2_4 TorPl_2_5"/>
    </vehicle>
    <vehicle id="car6" depart="72.00">
        <route edges="HunSt_1_1 TorPl_2_5"/>
    </vehicle>
    <vehicle id="car7" depart="81.00">
        <route edges="CheMe_1_1 TorPl_2_4 HunSt_1_2"/>
    </vehicle>
    <vehicle id="car8" depart="90.00">
        <route edges="GowSt_2_1 GowSt_2_2 TorPl_1_5 BynPl_1_1 BynPl_1_2 BynPl_1_3 GorSq_2_3"/>
    </vehicle>
    <vehicle id="car9" depart="93.00">
        <route edges="GowSt_1_1 GowSt_1_2 TorPl_1_5 BynPl_1_1 BynPl_1_2 BynPl_1_3 GorSq_1_2 GorSq_1_3"/>
    </vehicle>
    <vehicle id="car10" depart="101.00">
        <route edges="MalSt_2_1 BynPl_1_1 BynPl_1_2 BynPl_1_3 GorSq_1_2 GorSq_1_3"/>
    </vehicle>
    <vehicle id="car11" depart="103.00">
        <route edges="GowSt_1_1 GowSt_1_2 GowSt_1_3"/>
    </vehicle>
    <vehicle id="car12" depart="110.00">
        <route edges="GowSt_2_1 GowSt_2_2 TorPl_2_3 TorPl_2_4 HunSt_1_2"/>
    </vehicle>
    <vehicle id="car13" depart="110.00">
        <route edges="GowSt_1_1 GowSt_1_2 GowSt_1_3"/>
    </vehicle>
    <vehicle id="car14" depart="111.00">
        <route edges="HunSt_1_1 TorPl_2_5"/>
    </vehicle>
    <vehicle id="car15" depart="136.00">
        <route edges="GowSt_1_1 GowSt_1_2 GowSt_1_3"/>
    </vehicle>
    <vehicle id="car16" depart="147.00">
        <route edges="GowSt_1_1 GowSt_1_2 TorPl_1_5 BynPl_1_1 BynPl_1_2 BynPl_1_3 GorSq_1_2 GorSq_1_3"/>
    </vehicle>
    <vehicle id="car17" depart="162.00">
        <route edges="GowSt_2_1 GowSt_2_2 TorPl_2_3 TorPl_2_4 HunSt_1_2"/>
    </vehicle>
    <vehicle id="car18" depart="165.00">
        <route edges="GowSt_2_1 GowSt_2_2 GowSt_2_3"/>
    </vehicle>
    <vehicle id="car19" depart="179.00">
        <route edges="CheMe_1_1 TorPl_2_4 TorPl_2_5"/>
    </vehicle>
    <vehicle id="car20" depart="187.00">
        <route edges="GowSt_2_1 GowSt_2_2 TorPl_1_5 BynPl_1_1 BynPl_1_2 BynPl_1_3 GorSq_1_2 GorSq_1_3"/>
    </vehicle>
    <vehicle id="car21" depart="205.00">
        <route edges="GowSt_2_1 GowSt_2_2 TorPl_2_3 TorPl_2_4 HunSt_1_2"/>
    </vehicle>
    <vehicle id="car22" depart="213.00">
        <route edges="HunSt_1_1 HunSt_1_2"/>
    </vehicle>
    <vehicle id="car23" depart="218.00">
        <route edges="GowSt_2_1 GowSt_2_2 TorPl_2_3 TorPl_2_4 HunSt_1_2"/>
    </vehicle>
    <vehicle id="car24" depart="227.00">
        <route edges="CheMe_1_1 TorPl_2_4 HunSt_1_2"/>
    </vehicle>
    <vehicle id="car25" depart="252.00">
        <route edges="GowSt_1_1 GowSt_1_2 TorPl_2_3 TorPl_2_4 HunSt_1_2"/>
    </vehicle>
    <vehicle id="car26" depart="276.00">
        <route edges="GorSq_1_1 GorSq_1_2 GorSq_1_3"/>
    </vehicle>
    <vehicle id="car27" depart="278.00">
        <route edges="GowSt_2_1 GowSt_2_2 TorPl_2_3 TorPl_2_4 TorPl_2_5"/>
    </vehicle>
    <vehicle id="car28" depart="282.00">
        <route edges="RidGa_2_1 TorPl_2_4 TorPl_2_5"/>
    </vehicle>
    <vehicle id="car29" depart="283.00">
        <route edges="GorSq_1_1 GorSq_1_2 GorSq_1_3"/>
    </vehicle>
    <vehicle id="car30" depart="290.00">
        <route edges="HunSt_1_1 TorPl_2_5"/>
    </vehicle>
    <vehicle id="car31" depart="318.00">
        <route edges="CheMe_1_1 TorPl_2_4 TorPl_2_5"/>
    </vehicle>
    <vehicle id="car32" depart="336.00">
        <route edges="GowSt_1_1 GowSt_1_2 TorPl_2_3 TorPl_2_4 TorPl_2_5"/>
    </vehicle>
    <vehicle id="car33" depart="356.00">
        <route edges="GowSt_2_1 GowSt_2_2 GowSt_2_3"/>
    </vehicle>
    <vehicle id="car34" depart="378.00">
        <route edges="GowSt_2_1 GowSt_2_2 GowSt_2_3"/>
    </vehicle>
    <vehicle id="car35" depart="379.00">
        <route edges="GowSt_2_1 GowSt_2_2 GowSt_2_3"/>
    </vehicle>
    <vehicle id="car36" depart="394.00">
        <route edges="GowSt_2_1 GowSt_2_2 TorPl_2_3 TorPl_2_4 TorPl_2_5"/>
    </vehicle>
    <vehicle id="car37" depart="427.00">
        <route edges="HunSt_1_1 TorPl_2_5"/>
    </vehicle>
    <vehicle id="car38" depart="431.00">
        <route edges="GowSt_1_1 GowSt_1_2 TorPl_2_3 TorPl_2_4 HunSt_1_2"/>
    </vehicle>
    <vehicle id="car39" depart="458.00">
        <route edges="MalSt_2_1 BynPl_1_1 BynPl_1_2 BynPl_1_3 GorSq_1_2 GorSq_1_3"/>
    </vehicle>
    <vehicle id="car40" depart="459.00">
        <route edges="HunSt_1_1 HunSt_1_2"/>
    </vehicle>
    <vehicle id="car41" depart="467.00">
        <route edges="GorSq_1_1 GorSq_1_2 GorSq_1_3"/>
    </vehicle>
    <vehicle id="car42" depart="473.00">
        <route edges="GowSt_2_1 GowSt_2_2 GowSt_2_3"/>
    </vehicle>
    <vehicle id="car43" depart="484.00">
        <route edges="GowSt_1_1 GowSt_1_2 GowSt_1_3"/>
    </vehicle>
    <vehicle id="car44" depart="492.00">
        <route edges="GowSt_2_1 GowSt_2_2 GowSt_2_3"/>
    </vehicle>
    <vehicle id="car45" depart="496.00">
        <route edges="HunSt_1_1 TorPl_2_5"/>
    </vehicle>
    <vehicle id="car46" depart="503.00">
        <route edges="RidGa_2_1 TorPl_2_4 HunSt_1_2"/>
    </vehicle>
    <vehicle id="car47" depart="509.00">
        <route edges="CheMe_1_1 TorPl_2_4 HunSt_1_2"/>
    </vehicle>
    <vehicle id="car48" depart="510.00">
        <route edges="GowSt_2_1 GowSt_2_2 GowSt_2_3"/>
    </vehicle>
    <vehicle id="car49" depart="522.00">
        <route edges="MalSt_2_1 BynPl_1_1 BynPl_1_2 BynPl_1_3 GorSq_1_2 GorSq_1_3"/>
    </vehicle>
    <vehicle id="car50" depart="523.00">
        <route edges="MalSt_2_1 BynPl_1_1 BynPl_1_2 BynPl_1_3 GorSq_2_3"/>
    </vehicle>
    <vehicle id="car51" depart="535.00">
        <route edges="GowSt_1_1 GowSt_1_2 TorPl_2_3 TorPl_2_4 TorPl_2_5"/>
    </vehicle>
    <vehicle id="car52" depart="539.00">
        <route edges="GowSt_2_1 GowSt_2_2 TorPl_1_5 BynPl_1_1 BynPl_1_2 BynPl_1_3 GorSq_1_2 GorSq_1_3"/>
    </vehicle>
    <vehicle id="car53" depart="547.00">
        <route edges="GowSt_2_1 GowSt_2_2 TorPl_2_3 TorPl_2_4 HunSt_1_2"/>
    </vehicle>
    <vehicle id="car54" depart="549.00">
        <route edges="CheMe_1_1 TorPl_2_4 TorPl_2_5"/>
    </vehicle>
    <vehicle id="car55" depart="585.00">
        <route edges="GowSt_1_1 GowSt_1_2 TorPl_2_3 TorPl_2_4 TorPl_2_5"/>
    </vehicle>
    <vehicle id="car56" depart="591.00">
        <route edges="CheMe_1_1 TorPl_2_4 TorPl_2_5"/>
    </vehicle>
    <vehicle id="car57" depart="595.00">
        <route edges="GowSt_1_1 GowSt_1_2 TorPl_1_5 BynPl_1_1 BynPl_1_2 BynPl_1_3 GorSq_2_3"/>
    </vehicle>
    <vehicle id="car58" depart="597.00">
        <route edges="GowSt_1_1 GowSt_1_2 TorPl_2_3 TorPl_2_4 TorPl_2_5"/>
    </vehicle>
    <vehicle id="car59" depart="598.00">
        <route edges="GowSt_1_1 GowSt_1_2 GowSt_1_3"/>
    </vehicle>
    <vehicle id="car60" depart="610.00">
        <route edges="MalSt_2_1 BynPl_1_1 BynPl_1_2 BynPl_1_3 GorSq_2_3"/>
    </vehicle>
    <vehicle id="car61" depart="610.00">
        <route edges="MalSt_2_1 BynPl_1_1 BynPl_1_2 BynPl_1_3 GorSq_1_2 GorSq_1_3"/>
    </vehicle>
    <vehicle id="car62" depart="610.00">
        <route edges="MalSt_2_1 BynPl_1_1 BynPl_1_2 BynPl_1_3 GorSq_1_2 GorSq_1_3"/>
    </vehicle>
    <vehicle id="car63" depart="616.00">
        <route edges="GowSt_2_1 GowSt_2_2 TorPl_2_3 TorPl_2_4 TorPl_2_5"/>
    </vehicle>
    <vehicle id="car64" depart="620.00">
        <route edges="GowSt_1_1 GowSt_1_2 GowSt_1_3"/>
    </vehicle>
    <vehicle id="car65" depart="625.00">
        <route edges="HunSt_1_1 HunSt_1_2"/>
    </vehicle>
    <vehicle id="car66" depart="632.00">
        <route edges="GowSt_1_1 GowSt_1_2 TorPl_1_5 BynPl_1_1 BynPl_1_2 BynPl_1_3 GorSq_1_2 GorSq_1_3"/>
    </vehicle>
    <vehicle id="car67" depart="647.00">
        <route edges="HunSt_1_1 HunSt_1_2"/>
    </vehicle>
    <vehicle id="car68" depart="655.00">
        <route edges="RidGa_2_1 TorPl_2_4 HunSt_1_2"/>
    </vehicle>
    <vehicle id="car69" depart="679.00">
        <route edges="GowSt_2_1 GowSt_2_2 TorPl_1_5 BynPl_1_1 BynPl_1_2 BynPl_1_3 GorSq_2_3"/>
    </vehicle>
    <vehicle id="car70" depart="682.00">
        <route edges="RidGa_2_1 TorPl_2_4 HunSt_1_2"/>
    </vehicle>
    <vehicle id="car71" depart="684.00">
        <route edges="GorSq_1_1 GorSq_1_2 GorSq_1_3"/>
    </vehicle>
    <vehicle id="car72" depart="693.00">
        <route edges="GowSt_1_1 GowSt_1_2 TorPl_1_5 BynPl_1_1 BynPl_1_2 BynPl_1_3 GorSq_2_3"/>
    </vehicle>
    <vehicle id="car73" depart="694.00">
        <route edges="GowSt_1_1 GowSt_1_2 TorPl_2_3 TorPl_2_4 HunSt_1_2"/>
    </vehicle>
    <vehicle id="car74" depart="699.00">
        <route edges="GowSt_2_1 GowSt_2_2 TorPl_1_5 BynPl_1_1 BynPl_1_2 BynPl_1_3 GorSq_2_3"/>
    </vehicle>
    <vehicle id="car75" depart="703.00">
        <route edges="GowSt_1_1 GowSt_1_2 GowSt_1_3"/>
    </vehicle>
    <vehicle id="car76" depart="708.00">
        <route edges="MalSt_2_1 BynPl_1_1 BynPl_1_2 BynPl_1_3 GorSq_2_3"/>
    </vehicle>
    <vehicle id="car77" depart="745.00">
        <route edges="MalSt_2_1 BynPl_1_1 BynPl_1_2 BynPl_1_3 GorSq_2_3"/>
    </vehicle>
    <vehicle id="car78" depart="751.00">
        <route edges="MalSt_2_1 BynPl_1_1 BynPl_1_2 BynPl_1_3 GorSq_2_3"/>
    </vehicle>
    <vehicle id="car79" depart="761.00">
        <route edges="GorSq_1_1 GorSq_1_2 GorSq_1_3"/>
    </vehicle>
    <vehicle id="car80" depart="768.00">
        <route edges="GowSt_2_1 GowSt_2_2 GowSt_2_3"/>
    </vehicle>
    <vehicle id="car81" depart="775.00">
        <route edges="GorSq_1_1 GorSq_1_2 GorSq_1_3"/>
    </vehicle>
    <vehicle id="car82" depart="779.00">
        <route edges="HunSt_1_1 TorPl_2_5"/>
    </vehicle>
    <vehicle id="car83" depart="782.00">
        <route edges="CheMe_1_1 TorPl_2_4 HunSt_1_2"/>
    </vehicle>
    <vehicle id="car84" depart="784.00">
        <route edges="GowSt_2_1 GowSt_2_2 TorPl_1_5 BynPl_1_1 BynPl_1_2 BynPl_1_3 GorSq_2_3"/>
    </vehicle>
    <vehicle id="car85" depart="789.00">
        <route edges="GowSt_1_1 GowSt_1_2 GowSt_1_3"/>
    </vehicle>
    <vehicle id="car86" depart="813.00">
        <route edges="GowSt_1_1 GowSt_1_2 TorPl_1_5 BynPl_1_1 BynPl_1_2 BynPl_1_3 GorSq_2_3"/>
    </vehicle>
    <vehicle id="car87" depart="816.00">
        <route edges="MalSt_2_1 BynPl_1_1 BynPl_1_2 BynPl_1_3 GorSq_1_2 GorSq_1_3"/>
    </vehicle>
    <vehicle id="car88" depart="826.00">
        <route edges="MalSt_2_1 BynPl_1_1 BynPl_1_2 BynPl_1_3 GorSq_2_3"/>
    </vehicle>
    <vehicle id="car89" depart="837.00">
        <route edges="GowSt_1_1 GowSt_1_2 GowSt_1_3"/>
    </vehicle>
    <vehicle id="car90" depart="854.00">
        <route edges="GowSt_2_1 GowSt_2_2 GowSt_2_3"/>
    </vehicle>
    <vehicle id="car91" depart="859.00">
        <route edges="CheMe_1_1 TorPl_2_4 TorPl_2_5"/>
    </vehicle>
    <vehicle id="car92" depart="867.00">
        <route edges="GowSt_1_1 GowSt_1_2 TorPl_2_3 TorPl_2_4 TorPl_2_5"/>
    </vehicle>
    <vehicle id="car93" depart="879.00">
        <route edges="HunSt_1_1 TorPl_2_5"/>
    </vehicle>
    <vehicle id="car94" depart="884.00">
        <route edges="GorSq_1_1 GorSq_1_2 GorSq_1_3"/>
    </vehicle>
    <vehicle id="car95" depart="905.00">
        <route edges="GowSt_1_1 GowSt_1_2 TorPl_1_5 BynPl_1_1 BynPl_1_2 BynPl_1_3 GorSq_2_3"/>
    </vehicle>
    <vehicle id="car96" depart="906.00">
        <route edges="CheMe_1_1 TorPl_2_4 TorPl_2_5"/>
    </vehicle>
    <vehicle id="car97" depart="911.00">
        <route edges="GowSt_1_1 GowSt_1_2 TorPl_1_5 BynPl_1_1 BynPl_1_2 BynPl_1_3 GorSq_1_2 GorSq_1_3"/>
    </vehicle>
    <vehicle id="car98" depart="913.00">
        <route edges="MalSt_2_1 BynPl_1_1 BynPl_1_2 BynPl_1_3 GorSq_2_3"/>
    </vehicle>
    <vehicle id="car99" depart="915.00">
        <route edges="GorSq_1_1 GorSq_1_2 GorSq_1_3"/>
    </vehicle>
    <vehicle id="car100" depart="921.00">
        <route edges="CheMe_1_1 TorPl_2_4 HunSt_1_2"/>
    </vehicle>
    <vehicle id="car101" depart="929.00">
        <route edges="GowSt_1_1 GowSt_1_2 GowSt_1_3"/>
    </vehicle>
    <vehicle id="car102" depart="950.00">
        <route edges="GowSt_1_1 GowSt_1_2 TorPl_1_5 BynPl_1_1 BynPl_1_2 BynPl_1_3 GorSq_2_3"/>
    </vehicle>
    <vehicle id="car103" depart="952.00">
        <route edges="GowSt_1_1 GowSt_1_2 TorPl_2_3 TorPl_2_4 HunSt_1_2"/>
    </vehicle>
    <vehicle id="car104" depart="953.00">
        <route edges="GowSt_2_1 GowSt_2_2 GowSt_2_3"/>
    </vehicle>
    <vehicle id="car105" depart="959.00">
        <route edges="MalSt_2_1 BynPl_1_1 BynPl_1_2 BynPl_1_3 GorSq_2_3"/>
    </vehicle>
    <vehicle id="car106" depart="968.00">
        <route edges="GowSt_2_1 GowSt_2_2 TorPl_1_5 BynPl_1_1 BynPl_1_2 BynPl_1_3 GorSq_2_3"/>
    </vehicle>
    <vehicle id="car107" depart="997.00">
        <route edges="GowSt_2_1 GowSt_2_2 TorPl_2_3 TorPl_2_4 HunSt_1_2"/>
    </vehicle>
    <vehicle id="car108" depart="1000.00">
        <route edges="GowSt_2_1 GowSt_2_2 TorPl_2_3 TorPl_2_4 HunSt_1_2"/>
    </vehicle>
    <vehicle id="car109" depart="1011.00">
        <route edges="HunSt_1_1 TorPl_2_5"/>
    </vehicle>
    <vehicle id="car110" depart="1013.00">
        <route edges="MalSt_2_1 BynPl_1_1 BynPl_1_2 BynPl_1_3 GorSq_1_2 GorSq_1_3"/>
    </vehicle>
    <vehicle id="car111" depart="1019.00">
        <route edges="GowSt_1_1 GowSt_1_2 TorPl_2_3 TorPl_2_4 HunSt_1_2"/>
    </vehicle>
    <vehicle id="car112" depart="1029.00">
        <route edges="GowSt_1_1 GowSt_1_2 TorPl_2_3 TorPl_2_4 TorPl_2_5"/>
    </vehicle>
    <vehicle id="car113" depart="1037.00">
        <route edges="GowSt_2_1 GowSt_2_2 TorPl_2_3 TorPl_2_4 TorPl_2_5"/>
    </vehicle>
    <vehicle id="car114" depart="1050.00">
        <route edges="GowSt_1_1 GowSt_1_2 TorPl_1_5 BynPl_1_1 BynPl_1_2 BynPl_1_3 GorSq_1_2 GorSq_1_3"/>
    </vehicle>
    <vehicle id="car115" depart="1062.00">
        <route edges="GowSt_2_1 GowSt_2_2 TorPl_2_3 TorPl_2_4 TorPl_2_5"/>
    </vehicle>
    <vehicle id="car116" depart="1073.00">
        <route edges="GowSt_2_1 GowSt_2_2 TorPl_1_5 BynPl_1_1 BynPl_1_2 BynPl_1_3 GorSq_2_3"/>
    </vehicle>
    <vehicle id="car117" depart="1074.00">
        <route edges="GowSt_1_1 GowSt_1_2 TorPl_2_3 TorPl_2_4 HunSt_1_2"/>
    </vehicle>
    <vehicle id="car118" depart="1084.00">
        <route edges="GowSt_1_1 GowSt_1_2 TorPl_2_3 TorPl_2_4 TorPl_2_5"/>
    </vehicle>
    <vehicle id="car119" depart="1098.00">
        <route edges="GowSt_1_1 GowSt_1_2 TorPl_2_3 TorPl_2_4 HunSt_1_2"/>
    </vehicle>
    <vehicle id="car120" depart="1106.00">
        <route edges="GorSq_1_1 GorSq_1_2 GorSq_1_3"/>
    </vehicle>
    <vehicle id="car121" depart="1113.00">
        <route edges="CheMe_1_1 TorPl_2_4 HunSt_1_2"/>
    </vehicle>
    <vehicle id="car122" depart="1117.00">
        <route edges="GowSt_2_1 GowSt_2_2 TorPl_2_3 TorPl_2_4 HunSt_1_2"/>
    </vehicle>
    <vehicle id="car123" depart="1121.00">
        <route edges="CheMe_1_1 TorPl_2_4 TorPl_2_5"/>
    </vehicle>
    <vehicle id="car124" depart="1137.00">
        <route edges="GowSt_1_1 GowSt_1_2 TorPl_1_5 BynPl_1_1 BynPl_1_2 BynPl_1_3 GorSq_1_2 GorSq_1_3"/>
    </vehicle>
    <vehicle id="car125" depart="1143.00">
        <route edges="GowSt_2_1 GowSt_2_2 TorPl_1_5 BynPl_1_1 BynPl_1_2 BynPl_1_3 GorSq_2_3"/>
    </vehicle>
    <vehicle id="car126" depart="1158.00">
        <route edges="GowSt_2_1 GowSt_2_2 TorPl_2_3 TorPl_2_4 HunSt_1_2"/>
    </vehicle>
    <vehicle id="car127" depart="1179.00">
        <route edges="GowSt_1_1 GowSt_1_2 TorPl_1_5 BynPl_1_1 BynPl_1_2 BynPl_1_3 GorSq_1_2 GorSq_1_3"/>
    </vehicle>
    <vehicle id="car128" depart="1183.00">
        <route edges="GowSt_2_1 GowSt_2_2 TorPl_2_3 TorPl_2_4 HunSt_1_2"/>
    </vehicle>
    <vehicle id="car129" depart="1188.00">
        <route edges="GowSt_1_1 GowSt_1_2 TorPl_1_5 BynPl_1_1 BynPl_1_2 BynPl_1_3 GorSq_2_3"/>
    </vehicle>
    <vehicle id="car130" depart="1205.00">
        <route edges="GowSt_1_1 GowSt_1_2 GowSt_1_3"/>
    </vehicle>
    <vehicle id="car131" depart="1222.00">
        <route edges="GowSt_1_1 GowSt_1_2 GowSt_1_3"/>
    </vehicle>
    <vehicle id="car132" depart="1269.00">
        <route edges="CheMe_1_1 TorPl_2_4 HunSt_1_2"/>
    </vehicle>
    <vehicle id="car133" depart="1275.00">
        <route edges="HunSt_1_1 TorPl_2_5"/>
    </vehicle>
    <vehicle id="car134" depart="1294.00">
        <route edges="GowSt_2_1 GowSt_2_2 TorPl_2_3 TorPl_2_4 HunSt_1_2"/>
    </vehicle>
    <vehicle id="car135" depart="1299.00">
        <route edges="GorSq_1_1 GorSq_1_2 GorSq_1_3"/>
    </vehicle>
    <vehicle id="car136" depart="1302.00">
        <route edges="GowSt_2_1 GowSt_2_2 TorPl_2_3 TorPl_2_4 HunSt_1_2"/>
    </vehicle>
    <vehicle id="car137" depart="1302.00">
        <route edges="GowSt_1_1 GowSt_1_2 TorPl_2_3 TorPl_2_4 TorPl_2_5"/>
    </vehicle>
    <vehicle id="car138" depart="1308.00">
        <route edges="RidGa_2_1 TorPl_2_4 HunSt_1_2"/>
    </vehicle>
    <vehicle id="car139" depart="1316.00">
        <route edges="RidGa_2_1 TorPl_2_4 HunSt_1_2"/>
    </vehicle>
    <vehicle id="car140" depart="1332.00">
        <route edges="GowSt_1_1 GowSt_1_2 TorPl_1_5 BynPl_1_1 BynPl_1_2 BynPl_1_3 GorSq_2_3"/>
    </vehicle>
    <vehicle id="car141" depart="1333.00">
        <route edges="CheMe_1_1 TorPl_2_4 TorPl_2_5"/>
    </vehicle>
    <vehicle id="car142" depart="1334.00">
        <route edges="RidGa_2_1 TorPl_2_4 TorPl_2_5"/>
    </vehicle>
    <vehicle id="car143" depart="1334.00">
        <route edges="GowSt_2_1 GowSt_2_2 TorPl_1_5 BynPl_1_1 BynPl_1_2 BynPl_1_3 GorSq_1_2 GorSq_1_3"/>
    </vehicle>
    <vehicle id="car144" depart="1337.00">
        <route edges="CheMe_1_1 TorPl_2_4 TorPl_2_5"/>
    </vehicle>
    <vehicle id="car145" depart="1356.00">
        <route edges="MalSt_2_1 BynPl_1_1 BynPl_1_2 BynPl_1_3 GorSq_1_2 GorSq_1_3"/>
    </vehicle>
    <vehicle id="car146" depart="1380.00">
        <route edges="HunSt_1_1 HunSt_1_2"/>
    </vehicle>
    <vehicle id="car147" depart="1405.00">
        <route edges="GowSt_2_1 GowSt_2_2 GowSt_2_3"/>
    </vehicle>
    <vehicle id="car148" depart="1415.00">
        <route edges="GowSt_2_1 GowSt_2_2 TorPl_2_3 TorPl_2_4 TorPl_2_5"/>
    </vehicle>
    <vehicle id="car149" depart="1416.00">
        <route edges="GorSq_1_1 GorSq_1_2 GorSq_1_3"/>
    </vehicle>
    <vehicle id="car150" depart="1416.00">
        <route edges="GowSt_1_1 GowSt_1_2 TorPl_2_3 TorPl_2_4 TorPl_2_5"/>
    </vehicle>
    <vehicle id="car151" depart="1438.00">
        <route edges="GowSt_2_1 GowSt_2_2 GowSt_2_3"/>
    </vehicle>
    <vehicle id="car152" depart="1439.00">
        <route edges="RidGa_2_1 TorPl_2_4 TorPl_2_5"/>
    </vehicle>
    <vehicle id="car153" depart="1473.00">
        <route edges="MalSt_2_1 BynPl_1_1 BynPl_1_2 BynPl_1_3 GorSq_2_3"/>
    </vehicle>
    <vehicle id="car154" depart="1485.00">
        <route edges="GowSt_2_1 GowSt_2_2 GowSt_2_3"/>
    </vehicle>
    <vehicle id="car155" depart="1488.00">
        <route edges="CheMe_1_1 TorPl_2_4 TorPl_2_5"/>
    </vehicle>
    <vehicle id="car156" depart="1503.00">
        <route edges="GorSq_1_1 GorSq_1_2 GorSq_1_3"/>
    </vehicle>
    <vehicle id="car157" depart="1517.00">
        <route edges="GowSt_2_1 GowSt_2_2 TorPl_2_3 TorPl_2_4 TorPl_2_5"/>
    </vehicle>
    <vehicle id="car158" depart="1525.00">
        <route edges="GowSt_1_1 GowSt_1_2 GowSt_1_3"/>
    </vehicle>
    <vehicle id="car159" depart="1528.00">
        <route edges="GowSt_2_1 GowSt_2_2 TorPl_2_3 TorPl_2_4 TorPl_2_5"/>
    </vehicle>
    <vehicle id="car160" depart="1536.00">
        <route edges="GowSt_1_1 GowSt_1_2 TorPl_2_3 TorPl_2_4 HunSt_1_2"/>
    </vehicle>
    <vehicle id="car161" depart="1538.00">
        <route edges="GorSq_1_1 GorSq_1_2 GorSq_1_3"/>
    </vehicle>
    <vehicle id="car162" depart="1543.00">
        <route edges="RidGa_2_1 TorPl_2_4 HunSt_1_2"/>
    </vehicle>
    <vehicle id="car163" depart="1548.00">
        <route edges="GorSq_1_1 GorSq_1_2 GorSq_1_3"/>
    </vehicle>
    <vehicle id="car164" depart="1576.00">
        <route edges="GowSt_1_1 GowSt_1_2 TorPl_1_5 BynPl_1_1 BynPl_1_2 BynPl_1_3 GorSq_2_3"/>
    </vehicle>
    <vehicle id="car165" depart="1577.00">
        <route edges="RidGa_2_1 TorPl_2_4 TorPl_2_5"/>
    </vehicle>
    <vehicle id="car166" depart="1582.00">
        <route edges="HunSt_1_1 TorPl_2_5"/>
    </vehicle>
    <vehicle id="car167" depart="1590.00">
        <route edges="GowSt_2_1 GowSt_2_2 TorPl_1_5 BynPl_1_1 BynPl_1_2 BynPl_1_3 GorSq_2_3"/>
    </vehicle>
    <vehicle id="car168" depart="1600.00">
        <route edges="GowSt_2_1 GowSt_2_2 TorPl_1_5 BynPl_1_1 BynPl_1_2 BynPl_1_3 GorSq_1_2 GorSq_1_3"/>
    </vehicle>
    <vehicle id="car169" depart="1601.00">
        <route edges="GowSt_2_1 GowSt_2_2 TorPl_1_5 BynPl_1_1 BynPl_1_2 BynPl_1_3 GorSq_2_3"/>
    </vehicle>
    <vehicle id="car170" depart="1609.00">
        <route edges="RidGa_2_1 TorPl_2_4 HunSt_1_2"/>
    </vehicle>
    <vehicle id="car171" depart="1610.00">
        <route edges="MalSt_2_1 BynPl_1_1 BynPl_1_2 BynPl_1_3 GorSq_1_2 GorSq_1_3"/>
    </vehicle>
    <vehicle id="car172" depart="1617.00">
        <route edges="CheMe_1_1 TorPl_2_4 HunSt_1_2"/>
    </vehicle>
    <vehicle id="car173" depart="1626.00">
        <route edges="GowSt_1_1 GowSt_1_2 TorPl_1_5 BynPl_1_1 BynPl_1_2 BynPl_1_3 GorSq_1_2 GorSq_1_3"/>
    </vehicle>
    <vehicle id="car174" depart="1633.00">
        <route edges="GowSt_1_1 GowSt_1_2 TorPl_1_5 BynPl_1_1 BynPl_1_2 BynPl_1_3 GorSq_1_2 GorSq_1_3"/>
    </vehicle>
    <vehicle id="car175" depart="1666.00">
        <route edges="GowSt_2_1 GowSt_2_2 TorPl_2_3 TorPl_2_4 HunSt_1_2"/>
    </vehicle>
    <vehicle id="car176" depart="1667.00">
        <route edges="GowSt_2_1 GowSt_2_2 TorPl_1_5 BynPl_1_1 BynPl_1_2 BynPl_1_3 GorSq_1_2 GorSq_1_3"/>
    </vehicle>
    <vehicle id="car177" depart="1673.00">
        <route edges="MalSt_2_1 BynPl_1_1 BynPl_1_2 BynPl_1_3 GorSq_1_2 GorSq_1_3"/>
    </vehicle>
    <vehicle id="car178" depart="1701.00">
        <route edges="GowSt_1_1 GowSt_1_2 TorPl_2_3 TorPl_2_4 HunSt_1_2"/>
    </vehicle>
    <vehicle id="car179" depart="1722.00">
        <route edges="GowSt_1_1 GowSt_1_2 TorPl_2_3 TorPl_2_4 TorPl_2_5"/>
    </vehicle>
    <vehicle id="car180" depart="1733.00">
        <route edges="RidGa_2_1 TorPl_2_4 TorPl_2_5"/>
    </vehicle>
    <vehicle id="car181" depart="1748.00">
        <route edges="RidGa_2_1 TorPl_2_4 HunSt_1_2"/>
    </vehicle>
    <vehicle id="car182" depart="1748.00">
        <route edges="GowSt_2_1 GowSt_2_2 TorPl_2_3 TorPl_2_4 HunSt_1_2"/>
    </vehicle>
    <vehicle id="car183" depart="1748.00">
        <route edges="CheMe_1_1 TorPl_2_4 HunSt_1_2"/>
    </vehicle>
    <vehicle id="car184" depart="1758.00">
        <route edges="CheMe_1_1 TorPl_2_4 TorPl_2_5"/>
    </vehicle>
    <vehicle id="car185" depart="1762.00">
        <route edges="MalSt_2_1 BynPl_1_1 BynPl_1_2 BynPl_1_3 GorSq_2_3"/>
    </vehicle>
    <vehicle id="car186" depart="1775.00">
        <route edges="GowSt_1_1 GowSt_1_2 TorPl_2_3 TorPl_2_4 TorPl_2_5"/>
    </vehicle>
    <vehicle id="car187" depart="1791.00">
        <route edges="GowSt_1_1 GowSt_1_2 GowSt_1_3"/>
    </vehicle>
    <vehicle id="car188" depart="1802.00">
        <route edges="GowSt_1_1 GowSt_1_2 TorPl_1_5 BynPl_1_1 BynPl_1_2 BynPl_1_3 GorSq_2_3"/>
    </vehicle>
    <vehicle id="car189" depart="1810.00">
        <route edges="GorSq_1_1 GorSq_1_2 GorSq_1_3"/>
    </vehicle>
    <vehicle id="car190" depart="1810.00">
        <route edges="GowSt_2_1 GowSt_2_2 GowSt_2_3"/>
    </vehicle>
    <vehicle id="car191" depart="1838.00">
        <route edges="GowSt_2_1 GowSt_2_2 TorPl_2_3 TorPl_2_4 TorPl_2_5"/>
    </vehicle>
    <vehicle id="car192" depart="1845.00">
        <route edges="CheMe_1_1 TorPl_2_4 HunSt_1_2"/>
    </vehicle>
    <vehicle id="car193" depart="1845.00">
        <route edges="GowSt_1_1 GowSt_1_2 TorPl_2_3 TorPl_2_4 TorPl_2_5"/>
    </vehicle>
    <vehicle id="car194" depart="1847.00">
        <route edges="GowSt_2_1 GowSt_2_2 TorPl_1_5 BynPl_1_1 BynPl_1_2 BynPl_1_3 GorSq_1_2 GorSq_1_3"/>
    </vehicle>
    <vehicle id="car195" depart="1855.00">
        <route edges="GowSt_1_1 GowSt_1_2 TorPl_1_5 BynPl_1_1 BynPl_1_2 BynPl_1_3 GorSq_1_2 GorSq_1_3"/>
    </vehicle>
    <vehicle id="car196" depart="1858.00">
        <route edges="CheMe_1_1 TorPl_2_4 TorPl_2_5"/>
    </vehicle>
    <vehicle id="car197" depart="1861.00">
        <route edges="GowSt_1_1 GowSt_1_2 TorPl_2_3 TorPl_2_4 HunSt_1_2"/>
    </vehicle>
    <vehicle id="car198" depart="1867.00">
        <route edges="RidGa_2_1 TorPl_2_4 HunSt_1_2"/>
    </vehicle>
    <vehicle id="car199" depart="1871.00">
        <route edges="RidGa_2_1 TorPl_2_4 HunSt_1_2"/>
    </vehicle>
    <vehicle id="car200" depart="1896.00">
        <route edges="GorSq_1_1 GorSq_1_2 GorSq_1_3"/>
    </vehicle>
    <vehicle id="car201" depart="1904.00">
        <route edges="GowSt_1_1 GowSt_1_2 TorPl_1_5 BynPl_1_1 BynPl_1_2 BynPl_1_3 GorSq_1_2 GorSq_1_3"/>
    </vehicle>
    <vehicle id="car202" depart="1930.00">
        <route edges="CheMe_1_1 TorPl_2_4 TorPl_2_5"/>
    </vehicle>
    <vehicle id="car203" depart="1940.00">
        <route edges="GowSt_2_1 GowSt_2_2 GowSt_2_3"/>
    </vehicle>
    <vehicle id="car204" depart="1963.00">
        <route edges="GowSt_2_1 GowSt_2_2 TorPl_2_3 TorPl_2_4 TorPl_2_5"/>
    </vehicle>
    <vehicle id="car205" depart="1969.00">
        <route edges="CheMe_1_1 TorPl_2_4 HunSt_1_2"/>
    </vehicle>
    <vehicle id="car206" depart="1992.00">
        <route edges="GowSt_1_1 GowSt_1_2 TorPl_1_5 BynPl_1_1 BynPl_1_2 BynPl_1_3 GorSq_2_3"/>
    </vehicle>
    <vehicle id="car207" depart="1997.00">
        <route edges="GowSt_1_1 GowSt_1_2 TorPl_2_3 TorPl_2_4 HunSt_1_2"/>
    </vehicle>
    <vehicle id="car208" depart="1999.00">
        <route edges="GorSq_1_1 GorSq_1_2 GorSq_1_3"/>
    </vehicle>
    <vehicle id="car209" depart="2024.00">
        <route edges="RidGa_2_1 TorPl_2_4 TorPl_2_5"/>
    </vehicle>
    <vehicle id="car210" depart="2029.00">
        <route edges="GowSt_1_1 GowSt_1_2 GowSt_1_3"/>
    </vehicle>
    <vehicle id="car211" depart="2029.00">
        <route edges="CheMe_1_1 TorPl_2_4 TorPl_2_5"/>
    </vehicle>
    <vehicle id="car212" depart="2034.00">
        <route edges="GowSt_1_1 GowSt_1_2 TorPl_2_3 TorPl_2_4 HunSt_1_2"/>
    </vehicle>
    <vehicle id="car213" depart="2048.00">
        <route edges="GowSt_2_1 GowSt_2_2 TorPl_1_5 BynPl_1_1 BynPl_1_2 BynPl_1_3 GorSq_1_2 GorSq_1_3"/>
    </vehicle>
    <vehicle id="car214" depart="2048.00">
        <route edges="RidGa_2_1 TorPl_2_4 HunSt_1_2"/>
    </vehicle>
    <vehicle id="car215" depart="2053.00">
        <route edges="CheMe_1_1 TorPl_2_4 HunSt_1_2"/>
    </vehicle>
    <vehicle id="car216" depart="2060.00">
        <route edges="GowSt_2_1 GowSt_2_2 TorPl_2_3 TorPl_2_4 TorPl_2_5"/>
    </vehicle>
    <vehicle id="car217" depart="2071.00">
        <route edges="RidGa_2_1 TorPl_2_4 TorPl_2_5"/>
    </vehicle>
    <vehicle id="car218" depart="2087.00">
        <route edges="CheMe_1_1 TorPl_2_4 HunSt_1_2"/>
    </vehicle>
    <vehicle id="car219" depart="2089.00">
        <route edges="HunSt_1_1 HunSt_1_2"/>
    </vehicle>
    <vehicle id="car220" depart="2090.00">
        <route edges="GowSt_2_1 GowSt_2_2 TorPl_1_5 BynPl_1_1 BynPl_1_2 BynPl_1_3 GorSq_1_2 GorSq_1_3"/>
    </vehicle>
    <vehicle id="car221" depart="2119.00">
        <route edges="GowSt_1_1 GowSt_1_2 TorPl_2_3 TorPl_2_4 HunSt_1_2"/>
    </vehicle>
    <vehicle id="car222" depart="2137.00">
        <route edges="HunSt_1_1 TorPl_2_5"/>
    </vehicle>
    <vehicle id="car223" depart="2157.00">
        <route edges="GowSt_1_1 GowSt_1_2 GowSt_1_3"/>
    </vehicle>
    <vehicle id="car224" depart="2169.00">
        <route edges="MalSt_2_1 BynPl_1_1 BynPl_1_2 BynPl_1_3 GorSq_2_3"/>
    </vehicle>
    <vehicle id="car225" depart="2170.00">
        <route edges="GowSt_2_1 GowSt_2_2 TorPl_2_3 TorPl_2_4 TorPl_2_5"/>
    </vehicle>
    <vehicle id="car226" depart="2174.00">
        <route edges="HunSt_1_1 TorPl_2_5"/>
    </vehicle>