<?xml version="1.0" encoding="UTF-8"?>

<!-- generated on 2026-01-14 16:39:10.714680 by Eclipse SUMO randomTrips.py UNKNOWN
<configuration>
    <net-file value="../networks/demo/main.net.xml"/>
    <output-trip-file value="../routes/demo/train/812/car.trips.xml"/>
    <route-file value="../routes/demo/train/812/car.rou.xml"/>
    <prefix value="car"/>
    <fringe-factor value="max"/>
    <seed value="812"/>
    <insertion-density value="100.0"/>
    <binomial value="100"/>
</configuration>
-->

<!-- generated on 2026-01-14T16:39:10.709346+00:00 by Eclipse SUMO duarouter 1.25.0
<duarouterConfiguration xmlns:xsi="http://www.w3.org/2001/XMLSchema-instance" xsi:noNamespaceSchemaLocation="http://sumo.dlr.de/xsd/duarouterConfiguration.xsd">

    <input>
        <net-file value="../networks/demo/main.net.xml"/>
        <route-files value="../routes/demo/train/812/car.trips.xml"/>
    </input>

    <output>
        <output-file value="../routes/demo/train/812/car.rou.xml"/>
        <alternatives-output value="NUL"/>
    </output>

    <time>
        <begin value="0"/>
        <end value="3600.0"/>
    </time>

    <report>
        <no-warnings value="true"/>
        <ignore-errors value="true"/>
        <no-step-log value="true"/>
    </report>

</duarouterConfiguration>
-->

<routes xmlns:xsi="http://www.w3.org/2001/XMLSchema-instance" xsi:noNamespaceSchemaLocation="http://sumo.dlr.de/xsd/routes_file.xsd">
    <vehicle id="car0" depart="38.00">
        <route edges="GowSt_1_1 TorPl_1_4 BynPl_1_1 BynPl_1_2 BynPl_1_3 GorSq_2_3"/>
    </vehicle>
    <vehicle id="car1" depart="42.00">
        <route edges="GowSt_2_1 GowSt_2_2"/>
    </vehicle>
    <vehicle id="car2" depart="64.00">
        <route edges="GowSt_2_1 TorPl_1_4 BynPl_1_1 BynPl_1_2 BynPl_1_3 GorSq_1_2 GorSq_1_3"/>
    </vehicle>
    <vehicle id="car3" depart="67.00">
        <route edges="GowSt_2_1 TorPl_2_2 TorPl_2_3 TorPl_2_4"/>
    </vehicle>
    <vehicle id="car4" depart="86.00">
        <route edges="HunSt_1_1 TorPl_2_4"/>
    </vehicle>
    <vehicle id="car5" depart="98.00">
        <route edges="HunSt_1_1 TorPl_2_4"/>
    </vehicle>
    <vehicle id="car6" depart="116.00">
        <route edges="MalSt_2_1 BynPl_1_1 BynPl_1_2 BynPl_1_3 GorSq_2_3"/>
    </vehicle>
    <vehicle id="car7" depart="118.00">
        <route edges="CheMe_1_1 TorPl_2_3 TorPl_2_4"/>
    </vehicle>
    <vehicle id="car8" depart="126.00">
        <route edges="MalSt_2_1 BynPl_1_1 BynPl_1_2 BynPl_1_3 GorSq_2_3"/>
    </vehicle>
    <vehicle id="car9" depart="133.00">
        <route edges="GowSt_1_1 GowSt_1_2"/>
    </vehicle>
    <vehicle id="car10" depart="134.00">
        <route edges="GowSt_1_1 TorPl_2_2 TorPl_2_3 HunSt_1_2"/>
    </vehicle>
    <vehicle id="car11" depart="140.00">
        <route edges="MalSt_2_1 BynPl_1_1 BynPl_1_2 BynPl_1_3 GorSq_1_2 GorSq_1_3"/>
    </vehicle>
    <vehicle id="car12" depart="150.00">
        <route edges="GowSt_2_1 TorPl_2_2 TorPl_2_3 TorPl_2_4"/>
    </vehicle>
    <vehicle id="car13" depart="178.00">
        <route edges="GowSt_2_1 GowSt_2_2"/>
    </vehicle>
    <vehicle id="car14" depart="178.00">
        <route edges="RidGa_2_1 TorPl_2_3 TorPl_2_4"/>
    </vehicle>
    <vehicle id="car15" depart="195.00">
        <route edges="HunSt_1_1 TorPl_2_4"/>
    </vehicle>
    <vehicle id="car16" depart="199.00">
        <route edges="RidGa_2_1 TorPl_2_3 TorPl_2_4"/>
    </vehicle>
    <vehicle id="car17" depart="200.00">
        <route edges="GowSt_2_1 TorPl_1_4 BynPl_1_1 BynPl_1_2 BynPl_1_3 GorSq_1_2 GorSq_1_3"/>
    </vehicle>
    <vehicle id="car18" depart="237.00">
        <route edges="GowSt_1_1 GowSt_1_2"/>
    </vehicle>
    <vehicle id="car19" depart="240.00">
        <route edges="GowSt_2_1 GowSt_2_2"/>
    </vehicle>
    <vehicle id="car20" depart="243.00">
        <route edges="GowSt_1_1 TorPl_1_4 BynPl_1_1 BynPl_1_2 BynPl_1_3 GorSq_1_2 GorSq_1_3"/>
    </vehicle>
    <vehicle id="car21" depart="260.00">
        <route edges="GowSt_2_1 TorPl_2_2 TorPl_2_3 HunSt_1_2"/>
    </vehicle>
    <vehicle id="car22" depart="265.00">
        <route edges="CheMe_1_1 TorPl_2_3 TorPl_2_4"/>
    </vehicle>
    <vehicle id="car23" depart="295.00">
        <route edges="GowSt_2_1 TorPl_1_4 BynPl_1_1 BynPl_1_2 BynPl_1_3 GorSq_1_2 GorSq_1_3"/>
    </vehicle>
    <vehicle id="car24" depart="296.00">
        <route edges="MalSt_2_1 BynPl_1_1 BynPl_1_2 BynPl_1_3 GorSq_2_3"/>
    </vehicle>
    <vehicle id="car25" depart="300.00">
        <route edges="GowSt_1_1 TorPl_1_4 BynPl_1_1 BynPl_1_2 BynPl_1_3 GorSq_1_2 GorSq_1_3"/>
    </vehicle>
    <vehicle id="car26" depart="302.00">
        <route edges="CheMe_1_1 TorPl_2_3 TorPl_2_4"/>
    </vehicle>
    <vehicle id="car27" depart="304.00">
        <route edges="GowSt_1_1 TorPl_2_2 TorPl_2_3 TorPl_2_4"/>
    </vehicle>
    <vehicle id="car28" depart="314.00">
        <route edges="GowSt_1_1 TorPl_1_4 BynPl_1_1 BynPl_1_2 BynPl_1_3 GorSq_2_3"/>
    </vehicle>
    <vehicle id="car29" depart="332.00">
        <route edges="GowSt_1_1 TorPl_1_4 BynPl_1_1 BynPl_1_2 BynPl_1_3 GorSq_1_2 GorSq_1_3"/>
    </vehicle>
    <vehicle id="car30" depart="332.00">
        <route edges="GorSq_1_1 GorSq_1_2 GorSq_1_3"/>
    </vehicle>
    <vehicle id="car31" depart="365.00">
        <route edges="GowSt_1_1 TorPl_1_4 BynPl_1_1 BynPl_1_2 BynPl_1_3 GorSq_1_2 GorSq_1_3"/>
    </vehicle>
    <vehicle id="car32" depart="365.00">
        <route edges="RidGa_2_1 TorPl_2_3 TorPl_2_4"/>
    </vehicle>
    <vehicle id="car33" depart="388.00">
        <route edges="GorSq_1_1 GorSq_1_2 GorSq_1_3"/>
    </vehicle>
    <vehicle id="car34" depart="390.00">
        <route edges="HunSt_1_1 HunSt_1_2"/>
    </vehicle>
    <vehicle id="car35" depart="416.00">
        <route edges="RidGa_2_1 TorPl_2_3 HunSt_1_2"/>
    </vehicle>
    <vehicle id="car36" depart="417.00">
        <route edges="GowSt_1_1 TorPl_2_2 TorPl_2_3 HunSt_1_2"/>
    </vehicle>
    <vehicle id="car37" depart="422.00">
        <route edges="MalSt_2_1 BynPl_1_1 BynPl_1_2 BynPl_1_3 GorSq_1_2 GorSq_1_3"/>
    </vehicle>
    <vehicle id="car38" depart="422.00">
        <route edges="GowSt_2_1 TorPl_1_4 BynPl_1_1 BynPl_1_2 BynPl_1_3 GorSq_2_3"/>
    </vehicle>
    <vehicle id="car39" depart="429.00">
        <route edges="GowSt_2_1 TorPl_1_4 BynPl_1_1 BynPl_1_2 BynPl_1_3 GorSq_2_3"/>
    </vehicle>
    <vehicle id="car40" depart="441.00">
        <route edges="GowSt_1_1 TorPl_2_2 TorPl_2_3 TorPl_2_4"/>
    </vehicle>
    <vehicle id="car41" depart="446.00">
        <route edges="HunSt_1_1 TorPl_2_4"/>
    </vehicle>
    <vehicle id="car42" depart="450.00">
        <route edges="GowSt_2_1 GowSt_2_2"/>
    </vehicle>
    <vehicle id="car43" depart="460.00">
        <route edges="GowSt_1_1 TorPl_1_4 BynPl_1_1 BynPl_1_2 BynPl_1_3 GorSq_2_3"/>
    </vehicle>
    <vehicle id="car44" depart="474.00">
        <route edges="GowSt_2_1 TorPl_2_2 TorPl_2_3 HunSt_1_2"/>
    </vehicle>
    <vehicle id="car45" depart="479.00">
        <route edges="MalSt_2_1 BynPl_1_1 BynPl_1_2 BynPl_1_3 GorSq_1_2 GorSq_1_3"/>
    </vehicle>
    <vehicle id="car46" depart="482.00">
        <route edges="RidGa_2_1 TorPl_2_3 TorPl_2_4"/>
    </vehicle>
    <vehicle id="car47" depart="498.00">
        <route edges="GorSq_1_1 GorSq_1_2 GorSq_1_3"/>
    </vehicle>
    <vehicle id="car48" depart="510.00">
        <route edges="RidGa_2_1 TorPl_2_3 HunSt_1_2"/>
    </vehicle>
    <vehicle id="car49" depart="512.00">
        <route edges="GowSt_1_1 GowSt_1_2"/>
    </vehicle>
    <vehicle id="car50" depart="548.00">
        <route edges="GowSt_2_1 TorPl_1_4 BynPl_1_1 BynPl_1_2 BynPl_1_3 GorSq_1_2 GorSq_1_3"/>
    </vehicle>
    <vehicle id="car51" depart="559.00">
        <route edges="GowSt_1_1 TorPl_2_2 TorPl_2_3 TorPl_2_4"/>
    </vehicle>
    <vehicle id="car52" depart="579.00">
        <route edges="HunSt_1_1 HunSt_1_2"/>
    </vehicle>
    <vehicle id="car53" depart="599.00">
        <route edges="CheMe_1_1 TorPl_2_3 TorPl_2_4"/>
    </vehicle>
    <vehicle id="car54" depart="633.00">
        <route edges="GowSt_2_1 GowSt_2_2"/>
    </vehicle>
    <vehicle id="car55" depart="637.00">
        <route edges="HunSt_1_1 HunSt_1_2"/>
    </vehicle>
    <vehicle id="car56" depart="637.00">
        <route edges="RidGa_2_1 TorPl_2_3 HunSt_1_2"/>
    </vehicle>
    <vehicle id="car57" depart="642.00">
        <route edges="GowSt_1_1 TorPl_1_4 BynPl_1_1 BynPl_1_2 BynPl_1_3 GorSq_1_2 GorSq_1_3"/>
    </vehicle>
    <vehicle id="car58" depart="645.00">
        <route edges="CheMe_1_1 TorPl_2_3 TorPl_2_4"/>
    </vehicle>
    <vehicle id="car59" depart="645.00">
        <route edges="GowSt_1_1 GowSt_1_2"/>
    </vehicle>
    <vehicle id="car60" depart="648.00">
        <route edges="GowSt_2_1 TorPl_2_2 TorPl_2_3 TorPl_2_4"/>
    </vehicle>
    <vehicle id="car61" depart="657.00">
        <route edges="GowSt_2_1 TorPl_1_4 BynPl_1_1 BynPl_1_2 BynPl_1_3 GorSq_2_3"/>
    </vehicle>
    <vehicle id="car62" depart="660.00">
        <route edges="CheMe_1_1 TorPl_2_3 TorPl_2_4"/>
    </vehicle>
    <vehicle id="car63" depart="684.00">
        <route edges="GowSt_2_1 TorPl_2_2 TorPl_2_3 HunSt_1_2"/>
    </vehicle>
    <vehicle id="car64" depart="704.00">
        <route edges="GowSt_1_1 TorPl_1_4 BynPl_1_1 BynPl_1_2 BynPl_1_3 GorSq_2_3"/>
    </vehicle>
    <vehicle id="car65" depart="707.00">
        <route edges="GowSt_2_1 TorPl_2_2 TorPl_2_3 HunSt_1_2"/>
    </vehicle>
    <vehicle id="car66" depart="736.00">
        <route edges="CheMe_1_1 TorPl_2_3 HunSt_1_2"/>
    </vehicle>
    <vehicle id="car67" depart="736.00">
        <route edges="HunSt_1_1 TorPl_2_4"/>
    </vehicle>
    <vehicle id="car68" depart="741.00">
        <route edges="MalSt_2_1 BynPl_1_1 BynPl_1_2 BynPl_1_3 GorSq_1_2 GorSq_1_3"/>
    </vehicle>
    <vehicle id="car69" depart="757.00">
        <route edges="MalSt_2_1 BynPl_1_1 BynPl_1_2 BynPl_1_3 GorSq_1_2 GorSq_1_3"/>
    </vehicle>
    <vehicle id="car70" depart="759.00">
        <route edges="RidGa_2_1 TorPl_2_3 TorPl_2_4"/>
    </vehicle>
    <vehicle id="car71" depart="759.00">
        <route edges="HunSt_1_1 TorPl_2_4"/>
    </vehicle>
    <vehicle id="car72" depart="770.00">
        <route edges="GowSt_1_1 TorPl_1_4 BynPl_1_1 BynPl_1_2 BynPl_1_3 GorSq_1_2 GorSq_1_3"/>
    </vehicle>
    <vehicle id="car73" depart="777.00">
        <route edges="GowSt_2_1 GowSt_2_2"/>
    </vehicle>
    <vehicle id="car74" depart="787.00">
        <route edges="GowSt_2_1 TorPl_2_2 TorPl_2_3 HunSt_1_2"/>
    </vehicle>
    <vehicle id="car75" depart="806.00">
        <route edges="GowSt_2_1 TorPl_2_2 TorPl_2_3 TorPl_2_4"/>
    </vehicle>
    <vehicle id="car76" depart="809.00">
        <route edges="MalSt_2_1 BynPl_1_1 BynPl_1_2 BynPl_1_3 GorSq_1_2 GorSq_1_3"/>
    </vehicle>
    <vehicle id="car77" depart="815.00">
        <route edges="GowSt_1_1 TorPl_2_2 TorPl_2_3 TorPl_2_4"/>
    </vehicle>
    <vehicle id="car78" depart="858.00">
        <route edges="HunSt_1_1 HunSt_1_2"/>
    </vehicle>
    <vehicle id="car79" depart="860.00">
        <route edges="MalSt_2_1 BynPl_1_1 BynPl_1_2 BynPl_1_3 GorSq_1_2 GorSq_1_3"/>
    </vehicle>
    <vehicle id="car80" depart="864.00">
        <route edges="GowSt_2_1 TorPl_2_2 TorPl_2_3 HunSt_1_2"/>
    </vehicle>
    <vehicle id="car81" depart="866.00">
        <route edges="RidGa_2_1 TorPl_2_3 TorPl_2_4"/>
    </vehicle>
    <vehicle id="car82" depart="901.00">
        <route edges="GowSt_1_1 TorPl_2_2 TorPl_2_3 HunSt_1_2"/>
    </vehicle>
    <vehicle id="car83" depart="902.00">
        <route edges="HunSt_1_1 HunSt_1_2"/>
    </vehicle>
    <vehicle id="car84" depart="906.00">
        <route edges="HunSt_1_1 HunSt_1_2"/>
    </vehicle>
    <vehicle id="car85" depart="915.00">
        <route edges="GowSt_2_1 GowSt_2_2"/>
    </vehicle>
    <vehicle id="car86" depart="918.00">
        <route edges="GowSt_2_1 GowSt_2_2"/>
    </vehicle>
    <vehicle id="car87" depart="933.00">
        <route edges="CheMe_1_1 TorPl_2_3 TorPl_2_4"/>
    </vehicle>
    <vehicle id="car88" depart="935.00">
        <route edges="MalSt_2_1 BynPl_1_1 BynPl_1_2 BynPl_1_3 GorSq_1_2 GorSq_1_3"/>
    </vehicle>
    <vehicle id="car89" depart="950.00">
        <route edges="HunSt_1_1 HunSt_1_2"/>
    </vehicle>
    <vehicle id="car90" depart="951.00">
        <route edges="CheMe_1_1 TorPl_2_3 HunSt_1_2"/>
    </vehicle>
    <vehicle id="car91" depart="955.00">
        <route edges="RidGa_2_1 TorPl_2_3 TorPl_2_4"/>
    </vehicle>
    <vehicle id="car92" depart="961.00">
        <route edges="GowSt_2_1 TorPl_2_2 TorPl_2_3 TorPl_2_4"/>
    </vehicle>
    <vehicle id="car93" depart="967.00">
        <route edges="HunSt_1_1 HunSt_1_2"/>
    </vehicle>
    <vehicle id="car94" depart="980.00">
        <route edges="GorSq_1_1 GorSq_1_2 GorSq_1_3"/>
    </vehicle>
    <vehicle id="car95" depart="983.00">
        <route edges="GowSt_1_1 GowSt_1_2"/>
    </vehicle>
    <vehicle id="car96" depart="1013.00">
        <route edges="GowSt_2_1 TorPl_1_4 BynPl_1_1 BynPl_1_2 BynPl_1_3 GorSq_2_3"/>
    </vehicle>
    <vehicle id="car97" depart="1018.00">
        <route edges="CheMe_1_1 TorPl_2_3 TorPl_2_4"/>
    </vehicle>
    <vehicle id="car98" depart="1041.00">
        <route edges="RidGa_2_1 TorPl_2_3 HunSt_1_2"/>
    </vehicle>
    <vehicle id="car99" depart="1041.00">
        <route edges="GowSt_1_1 TorPl_2_2 TorPl_2_3 TorPl_2_4"/>
    </vehicle>
    <vehicle id="car100" depart="1050.00">
        <route edges="GowSt_1_1 TorPl_1_4 BynPl_1_1 BynPl_1_2 BynPl_1_3 GorSq_2_3"/>
    </vehicle>
    <vehicle id="car101" depart="1060.00">
        <route edges="GowSt_1_1 GowSt_1_2"/>
    </vehicle>
    <vehicle id="car102" depart="1090.00">
        <route edges="GowSt_1_1 TorPl_1_4 BynPl_1_1 BynPl_1_2 BynPl_1_3 GorSq_1_2 GorSq_1_3"/>
    </vehicle>
    <vehicle id="car103" depart="1091.00">
        <route edges="GowSt_1_1 TorPl_2_2 TorPl_2_3 TorPl_2_4"/>
    </vehicle>
    <vehicle id="car104" depart="1114.00">
        <route edges="GorSq_1_1 GorSq_1_2 GorSq_1_3"/>
    </vehicle>
    <vehicle id="car105" depart="1124.00">
        <route edges="GowSt_2_1 TorPl_1_4 BynPl_1_1 BynPl_1_2 BynPl_1_3 GorSq_1_2 GorSq_1_3"/>
    </vehicle>
    <vehicle id="car106" depart="1131.00">
        <route edges="GorSq_1_1 GorSq_1_2 GorSq_1_3"/>
    </vehicle>
    <vehicle id="car107" depart="1149.00">
        <route edges="GowSt_1_1 TorPl_1_4 BynPl_1_1 BynPl_1_2 BynPl_1_3 GorSq_1_2 GorSq_1_3"/>
    </vehicle>
    <vehicle id="car108" depart="1154.00">
        <route edges="HunSt_1_1 HunSt_1_2"/>
    </vehicle>
    <vehicle id="car109" depart="1158.00">
        <route edges="GowSt_1_1 TorPl_1_4 BynPl_1_1 BynPl_1_2 BynPl_1_3 GorSq_1_2 GorSq_1_3"/>
    </vehicle>
    <vehicle id="car110" depart="1159.00">
        <route edges="GowSt_1_1 TorPl_2_2 TorPl_2_3 TorPl_2_4"/>
    </vehicle>
    <vehicle id="car111" depart="1189.00">
        <route edges="CheMe_1_1 TorPl_2_3 HunSt_1_2"/>
    </vehicle>
    <vehicle id="car112" depart="1208.00">
        <route edges="GowSt_1_1 GowSt_1_2"/>
    </vehicle>
    <vehicle id="car113" depart="1237.00">
        <route edges="CheMe_1_1 TorPl_2_3 HunSt_1_2"/>
    </vehicle>
    <vehicle id="car114" depart="1250.00">
        <route edges="GorSq_1_1 GorSq_1_2 GorSq_1_3"/>
    </vehicle>
    <vehicle id="car115" depart="1252.00">
        <route edges="MalSt_2_1 BynPl_1_1 BynPl_1_2 BynPl_1_3 GorSq_1_2 GorSq_1_3"/>
    </vehicle>
    <vehicle id="car116" depart="1259.00">
        <route edges="HunSt_1_1 HunSt_1_2"/>
    </vehicle>
    <vehicle id="car117" depart="1270.00">
        <route edges="GowSt_1_1 TorPl_2_2 TorPl_2_3 TorPl_2_4"/>
    </vehicle>
    <vehicle id="car118" depart="1272.00">
        <route edges="GowSt_1_1 TorPl_1_4 BynPl_1_1 BynPl_1_2 BynPl_1_3 GorSq_2_3"/>
    </vehicle>
    <vehicle id="car119" depart="1287.00">
        <route edges="GowSt_1_1 TorPl_2_2 TorPl_2_3 TorPl_2_4"/>
    </vehicle>
    <vehicle id="car120" depart="1291.00">
        <route edges="GowSt_1_1 TorPl_1_4 BynPl_1_1 BynPl_1_2 BynPl_1_3 GorSq_2_3"/>
    </vehicle>
    <vehicle id="car121" depart="1293.00">
        <route edges="GowSt_2_1 TorPl_1_4 BynPl_1_1 BynPl_1_2 BynPl_1_3 GorSq_2_3"/>
    </vehicle>
    <vehicle id="car122" depart="1295.00">
        <route edges="CheMe_1_1 TorPl_2_3 HunSt_1_2"/>
    </vehicle>
    <vehicle id="car123" depart="1305.00">
        <route edges="GowSt_1_1 TorPl_1_4 BynPl_1_1 BynPl_1_2 BynPl_1_3 GorSq_1_2 GorSq_1_3"/>
    </vehicle>
    <vehicle id="car124" depart="1332.00">
        <route edges="CheMe_1_1 TorPl_2_3 TorPl_2_4"/>
    </vehicle>
    <vehicle id="car125" depart="1339.00">
        <route edges="GowSt_1_1 TorPl_2_2 TorPl_2_3 HunSt_1_2"/>
    </vehicle>
    <vehicle id="car126" depart="1339.00">
        <route edges="HunSt_1_1 HunSt_1_2"/>
    </vehicle>
    <vehicle id="car127" depart="1341.00">
        <route edges="GowSt_1_1 TorPl_2_2 TorPl_2_3 HunSt_1_2"/>
    </vehicle>
    <vehicle id="car128" depart="1353.00">
        <route edges="GowSt_2_1 TorPl_1_4 BynPl_1_1 BynPl_1_2 BynPl_1_3 GorSq_1_2 GorSq_1_3"/>
    </vehicle>
    <vehicle id="car129" depart="1369.00">
        <route edges="MalSt_2_1 BynPl_1_1 BynPl_1_2 BynPl_1_3 GorSq_1_2 GorSq_1_3"/>
    </vehicle>
    <vehicle id="car130" depart="1398.00">
        <route edges="HunSt_1_1 TorPl_2_4"/>
    </vehicle>
    <vehicle id="car131" depart="1409.00">
        <route edges="MalSt_2_1 BynPl_1_1 BynPl_1_2 BynPl_1_3 GorSq_1_2 GorSq_1_3"/>
    </vehicle>
    <vehicle id="car132" depart="1415.00">
        <route edges="GowSt_2_1 TorPl_1_4 BynPl_1_1 BynPl_1_2 BynPl_1_3 GorSq_1_2 GorSq_1_3"/>
    </vehicle>
    <vehicle id="car133" depart="1432.00">
        <route edges="GowSt_2_1 GowSt_2_2"/>
    </vehicle>
    <vehicle id="car134" depart="1438.00">
        <route edges="GowSt_1_1 GowSt_1_2"/>
    </vehicle>
    <vehicle id="car135" depart="1442.00">
        <route edges="GowSt_1_1 GowSt_1_2"/>
    </vehicle>
    <vehicle id="car136" depart="1459.00">
        <route edges="GowSt_2_1 TorPl_1_4 BynPl_1_1 BynPl_1_2 BynPl_1_3 GorSq_2_3"/>
    </vehicle>
    <vehicle id="car137" depart="1466.00">
        <route edges="GowSt_1_1 TorPl_2_2 TorPl_2_3 TorPl_2_4"/>
    </vehicle>
    <vehicle id="car138" depart="1472.00">
        <route edges="MalSt_2_1 BynPl_1_1 BynPl_1_2 BynPl_1_3 GorSq_1_2 GorSq_1_3"/>
    </vehicle>
    <vehicle id="car139" depart="1473.00">
        <route edges="GowSt_1_1 GowSt_1_2"/>
    </vehicle>
    <vehicle id="car140" depart="1473.00">
        <route edges="GowSt_1_1 GowSt_1_2"/>
    </vehicle>
    <vehicle id="car141" depart="1486.00">
        <route edges="GowSt_2_1 TorPl_2_2 TorPl_2_3 TorPl_2_4"/>
    </vehicle>
    <vehicle id="car142" depart="1508.00">
        <route edges="GowSt_2_1 TorPl_2_2 TorPl_2_3 HunSt_1_2"/>
    </vehicle>
    <vehicle id="car143" depart="1522.00">
        <route edges="RidGa_2_1 TorPl_2_3 HunSt_1_2"/>
    </vehicle>
    <vehicle id="car144" depart="1528.00">
        <route edges="RidGa_2_1 TorPl_2_3 TorPl_2_4"/>
    </vehicle>
    <vehicle id="car145" depart="1536.00">
        <route edges="HunSt_1_1 TorPl_2_4"/>
    </vehicle>
    <vehicle id="car146" depart="1539.00">
        <route edges="GowSt_2_1 GowSt_2_2"/>
    </vehicle>
    <vehicle id="car147" depart="1546.00">
        <route edges="MalSt_2_1 BynPl_1_1 BynPl_1_2 BynPl_1_3 GorSq_1_2 GorSq_1_3"/>
    </vehicle>
    <vehicle id="car148" depart="1553.00">
        <route edges="GowSt_2_1 TorPl_1_4 BynPl_1_1 BynPl_1_2 BynPl_1_3 GorSq_1_2 GorSq_1_3"/>
    </vehicle>
    <vehicle id="car149" depart="1597.00">
        <route edges="MalSt_2_1 BynPl_1_1 BynPl_1_2 BynPl_1_3 GorSq_2_3"/>
    </vehicle>
    <vehicle id="car150" depart="1626.00">
        <route edges="GowSt_2_1 TorPl_2_2 TorPl_2_3 TorPl_2_4"/>
    </vehicle>
    <vehicle id="car151" depart="1629.00">
        <route edges="GorSq_1_1 GorSq_1_2 GorSq_1_3"/>
    </vehicle>
    <vehicle id="car152" depart="1630.00">
        <route edges="GowSt_1_1 TorPl_1_4 BynPl_1_1 BynPl_1_2 BynPl_1_3 GorSq_1_2 GorSq_1_3"/>
    </vehicle>
    <vehicle id="car153" depart="1636.00">
        <route edges="GowSt_2_1 GowSt_2_2"/>
    </vehicle>
    <vehicle id="car154" depart="1641.00">
        <route edges="CheMe_1_1 TorPl_2_3 HunSt_1_2"/>
    </vehicle>
    <vehicle id="car155" depart="1647.00">
        <route edges="HunSt_1_1 TorPl_2_4"/>
    </vehicle>
    <vehicle id="car156" depart="1648.00">
        <route edges="GowSt_2_1 TorPl_2_2 TorPl_2_3 HunSt_1_2"/>
    </vehicle>
    <vehicle id="car157" depart="1677.00">
        <route edges="CheMe_1_1 TorPl_2_3 HunSt_1_2"/>
    </vehicle>
    <vehicle id="car158" depart="1680.00">
        <route edges="GowSt_1_1 TorPl_2_2 TorPl_2_3 HunSt_1_2"/>
    </vehicle>
    <vehicle id="car159" depart="1685.00">
        <route edges="GowSt_2_1 GowSt_2_2"/>
    </vehicle>
    <vehicle id="car160" depart="1692.00">
        <route edges="CheMe_1_1 TorPl_2_3 HunSt_1_2"/>
    </vehicle>
    <vehicle id="car161" depart="1727.00">
        <route edges="CheMe_1_1 TorPl_2_3 HunSt_1_2"/>
    </vehicle>
    <vehicle id="car162" depart="1729.00">
        <route edges="GorSq_1_1 GorSq_1_2 GorSq_1_3"/>
    </vehicle>
    <vehicle id="car163" depart="1736.00">
        <route edges="GowSt_1_1 TorPl_1_4 BynPl_1_1 BynPl_1_2 BynPl_1_3 GorSq_2_3"/>
    </vehicle>
    <vehicle id="car164" depart="1747.00">
        <route edges="GowSt_2_1 TorPl_1_4 BynPl_1_1 BynPl_1_2 BynPl_1_3 GorSq_2_3"/>
    </vehicle>
    <vehicle id="car165" depart="1758.00">
        <route edges="CheMe_1_1 TorPl_2_3 HunSt_1_2"/>
    </vehicle>
    <vehicle id="car166" depart="1761.00">
        <route edges="GowSt_2_1 TorPl_2_2 TorPl_2_3 TorPl_2_4"/>
    </vehicle>
    <vehicle id="car167" depart="1783.00">
        <route edges="GowSt_2_1 GowSt_2_2"/>
    </vehicle>
    <vehicle id="car168" depart="1785.00">
        <route edges="GowSt_1_1 TorPl_1_4 BynPl_1_1 BynPl_1_2 BynPl_1_3 GorSq_1_2 GorSq_1_3"/>
    </vehicle>
    <vehicle id="car169" depart="1803.00">
        <route edges="GowSt_2_1 TorPl_1_4 BynPl_1_1 BynPl_1_2 BynPl_1_3 GorSq_2_3"/>
    </vehicle>
    <vehicle id="car170" depart="1812.00">
        <route edges="MalSt_2_1 BynPl_1_1 BynPl_1_2 BynPl_1_3 GorSq_2_3"/>
    </vehicle>
    <vehicle id="car171" depart="1815.00">
        <route edges="RidGa_2_1 TorPl_2_3 TorPl_2_4"/>
    </vehicle>
    <vehicle id="car172" depart="1824.00">
        <route edges="GowSt_2_1 TorPl_1_4 BynPl_1_1 BynPl_1_2 BynPl_1_3 GorSq_2_3"/>
    </vehicle>
    <vehicle id="car173" depart="1833.00">
        <route edges="MalSt_2_1 BynPl_1_1 BynPl_1_2 BynPl_1_3 GorSq_1_2 GorSq_1_3"/>
    </vehicle>
    <vehicle id="car174" depart="1842.00">
        <route edges="GowSt_2_1 TorPl_1_4 BynPl_1_1 BynPl_1_2 BynPl_1_3 GorSq_1_2 GorSq_1_3"/>
    </vehicle>
    <vehicle id="car175" depart="1842.00">
        <route edges="GowSt_1_1 GowSt_1_2"/>
    </vehicle>
    <vehicle id="car176" depart="1844.00">
        <route edges="GowSt_2_1 TorPl_1_4 BynPl_1_1 BynPl_1_2 BynPl_1_3 GorSq_1_2 GorSq_1_3"/>
    </vehicle>
    <vehicle id="car177" depart="1854.00">
        <route edges="GowSt_2_1 GowSt_2_2"/>
    </vehicle>
    <vehicle id="car178" depart="1863.00">
        <route edges="CheMe_1_1 TorPl_2_3 TorPl_2_4"/>
    </vehicle>
    <vehicle id="car179" depart="1871.00">
        <route edges="CheMe_1_1 TorPl_2_3 HunSt_1_2"/>
    </vehicle>
    <vehicle id="car180" depart="1878.00">
        <route edges="GowSt_1_1 TorPl_2_2 TorPl_2_3 TorPl_2_4"/>
    </vehicle>
    <vehicle id="car181" depart="1892.00">
        <route edges="RidGa_2_1 TorPl_2_3 TorPl_2_4"/>
    </vehicle>
    <vehicle id="car182" depart="1894.00">
        <route edges="GowSt_2_1 TorPl_2_2 TorPl_2_3 HunSt_1_2"/>
    </vehicle>
    <vehicle id="car183" depart="1913.00">
        <route edges="HunSt_1_1 HunSt_1_2"/>
    </vehicle>
    <vehicle id="car184" depart="1921.00">
        <route edges="HunSt_1_1 HunSt_1_2"/>
    </vehicle>
    <vehicle id="car185" depart="1927.00">
        <route edges="GowSt_2_1 TorPl_1_4 BynPl_1_1 BynPl_1_2 BynPl_1_3 GorSq_1_2 GorSq_1_3"/>
    </vehicle>
    <vehicle id="car186" depart="1935.00">
        <route edges="CheMe_1_1 TorPl_2_3 TorPl_2_4"/>
    </vehicle>
    <vehicle id="car187" depart="1935.00">
        <route edges="GowSt_1_1 TorPl_2_2 TorPl_2_3 TorPl_2_4"/>
    </vehicle>
    <vehicle id="car188" depart="1942.00">
        <route edges="RidGa_2_1 TorPl_2_3 HunSt_1_2"/>
    </vehicle>
    <vehicle id="car189" depart="1946.00">
        <route edges="MalSt_2_1 BynPl_1_1 BynPl_1_2 BynPl_1_3 GorSq_2_3"/>
    </vehicle>
    <vehicle id="car190" depart="1969.00">
        <route edges="MalSt_2_1 BynPl_1_1 BynPl_1_2 BynPl_1_3 GorSq_2_3"/>
    </vehicle>
    <vehicle id="car191" depart="1971.00">
        <route edges="GowSt_2_1 TorPl_2_2 TorPl_2_3 TorPl_2_4"/>
    </vehicle>
    <vehicle id="car192" depart="1971.00">
        <route edges="MalSt_2_1 BynPl_1_1 BynPl_1_2 BynPl_1_3 GorSq_1_2 GorSq_1_3"/>
    </vehicle>
    <vehicle id="car193" depart="1981.00">
        <route edges="GowSt_1_1 TorPl_2_2 TorPl_2_3 TorPl_2_4"/>
    </vehicle>
    <vehicle id="car194" depart="1987.00">
        <route edges="GowSt_2_1 TorPl_1_4 BynPl_1_1 BynPl_1_2 BynPl_1_3 GorSq_2_3"/>
    </vehicle>
    <vehicle id="car195" depart="1988.00">
        <route edges="CheMe_1_1 TorPl_2_3 HunSt_1_2"/>
    </vehicle>
    <vehicle id="car196" depart="1988.00">
        <route edges="GowSt_2_1 TorPl_2_2 TorPl_2_3 TorPl_2_4"/>
    </vehicle>
    <vehicle id="car197" depart="2008.00">
        <route edges="RidGa_2_1 TorPl_2_3 HunSt_1_2"/>
    </vehicle>
    <vehicle id="car198" depart="2013.00">
        <route edges="GowSt_1_1 GowSt_1_2"/>
    </vehicle>
    <vehicle id="car199" depart="2018.00">
        <route edges="GowSt_2_1 TorPl_1_4 BynPl_1_1 BynPl_1_2 BynPl_1_3 GorSq_1_2 GorSq_1_3"/>
    </vehicle>
    <vehicle id="car200" depart="2022.00">
        <route edges="GowSt_1_1 TorPl_2_2 TorPl_2_3 TorPl_2_4"/>
    </vehicle>
    <vehicle id="car201" depart="2032.00">
        <route edges="GowSt_2_1 TorPl_1_4 BynPl_1_1 BynPl_1_2 BynPl_1_3 GorSq_2_3"/>
    </vehicle>
    <vehicle id="car202" depart="2051.00">
        <route edges="CheMe_1_1 TorPl_2_3 TorPl_2_4"/>
    </vehicle>
    <vehicle id="car203" depart="2065.00">
        <route edges="GowSt_1_1 TorPl_2_2 TorPl_2_3 TorPl_2_4"/>
    </vehicle>
    <vehicle id="car204" depart="2067.00">
        <route edges="HunSt_1_1 HunSt_1_2"/>
    </vehicle>
    <vehicle id="car205" depart="2068.00">
        <route edges="GowSt_1_1 TorPl_1_4 BynPl_1_1 BynPl_1_2 BynPl_1_3 GorSq_2_3"/>
    </vehicle>
    <vehicle id="car206" depart="2077.00">
        <route edges="MalSt_2_1 BynPl_1_1 BynPl_1_2 BynPl_1_3 GorSq_2_3"/>
    </vehicle>
    <vehicle id="car207" depart="2087.00">
        <route edges="HunSt_1_1 TorPl_2_4"/>
    </vehicle>
    <vehicle id="car208" depart="2088.00">
        <route edges="GowSt_1_1 TorPl_2_2 TorPl_2_3 HunSt_1_2"/>
    </vehicle>
    <vehicle id="car209" depart="2101.00">
        <route edges="GowSt_2_1 TorPl_1_4 BynPl_1_1 BynPl_1_2 BynPl_1_3 GorSq_1_2 GorSq_1_3"/>
    </vehicle>
    <vehicle id="car210" depart="2106.00">
        <route edges="CheMe_1_1 TorPl_2_3 TorPl_2_4"/>
    </vehicle>
    <vehicle id="car211" depart="2115.00">
        <route edges="GowSt_2_1 TorPl_1_4 BynPl_1_1 BynPl_1_2 BynPl_1_3 GorSq_1_2 GorSq_1_3"/>
    </vehicle>
    <vehicle id="car212" depart="2122.00">
        <route edges="GowSt_2_1 GowSt_2_2"/>
    </vehicle>
    <vehicle id="car213" depart="2124.00">
        <route edges="GowSt_2_1 TorPl_2_2 TorPl_2_3 HunSt_1_2"/>
    </vehicle>
    <vehicle id="car214" depart="2126.00">
        <route edges="GowSt_1_1 TorPl_1_4 BynPl_1_1 BynPl_1_2 BynPl_1_3 GorSq_2_3"/>
    </vehicle>
    <vehicle id="car215" depart="2134.00">
        <route edges="GowSt_2_1 GowSt_2_2"/>
    </vehicle>
    <vehicle id="car216" depart="2147.00">
        <route edges="GowSt_2_1 TorPl_2_2 TorPl_2_3 HunSt_1_2"/>
    </vehicle>
    <vehicle id="car217" depart="2182.00">
        <route edges="GowSt_1_1 TorPl_2_2 TorPl_2_3 HunSt_1_2"/>
    </vehicle>
    <vehicle id="car218" depart="2218.00">
        <route edges="HunSt_1_1 TorPl_2_4"/>
    </vehicle>
    <vehicle id="car219" depart="2233.00">
        <route edges="GowSt_2_1 TorPl_1_4 BynPl_1_1 BynPl_1_2 BynPl_1_3 GorSq_2_3"/>
    </vehicle>
    <vehicle id="car220" depart="2255.00">
        <route edges="RidGa_2_1 TorPl_2_3 HunSt_1_2"/>
    </vehicle>
    <vehicle id="car221" depart="2263.00">
        <route edges="MalSt_2_1 BynPl_1_1 BynPl_1_2 BynPl_1_3 GorSq_1_2 GorSq_1_3"/>
    </vehicle>
    <vehicle id="car222" depart="2282.00">
        <route edges="MalSt_2_1 BynPl_1_1 BynPl_1_2 BynPl_1_3 GorSq_2_3"/>
    </vehicle>
    <vehicle id="car223" depart="2282.00">
        <route edges="GowSt_2_1 TorPl_1_4 BynPl_1_1 BynPl_1_2 BynPl_1_3 GorSq_1_2 GorSq_1_3"/>
    </vehicle>
    <vehicle id="car224" depart="2285.00">
        <route edges="RidGa_2_1 TorPl_2_3 TorPl_2_4"/>
    </vehicle>
    <vehicle id="car225" depart="2307.00">
        <route edges="RidGa_2_1 TorPl_2_3 TorPl_2_4"/>
    </vehicle>
    <vehicle id="car226" depart="2309.00">
        <route edges="GowSt_1_1 GowSt_1_2"/>
    </vehicle>
    <vehicle id="car227" depart="2317.00">
        <route edges="GowSt_1_1 TorPl_2_2 TorPl_2_3 HunSt_1_2"/>
    </vehicle>
    <vehicle id="car228" depart="2330.00">
        <route edges="GowSt_1_1 TorPl_1_4 BynPl_1_1 BynPl_1_2 BynPl_1_3 GorSq_2_3"/>
    </vehicle>
    <vehicle id="car229" depart="2364.00">
        <route edges="HunSt_1_1 TorPl_2_4"/>
    </vehicle>
    <vehicle id="car230" depart="2371.00">
        <route edges="HunSt_1_1 TorPl_2_4"/>
    </vehicle>
    <vehicle id="car231" depart="2398.00">
        <route edges="GowSt_1_1 TorPl_2_2 TorPl_2_3 TorPl_2_4"/>
    </vehicle>
    <vehicle id="car232" depart="2416.00">
        <route edges="GowSt_2_1 TorPl_1_4 BynPl_1_1 BynPl_1_2 BynPl_1_3 GorSq_2_3"/>
    </vehicle>
    <vehicle id="car233" depart="2422.00">