<?xml version="1.0" encoding="UTF-8"?>

<!-- generated on 2025-11-24 12:06:39.020935 by Eclipse SUMO randomTrips.py UNKNOWN
<configuration>
    <net-file value="../networks/demo/main.net.xml"/>
    <output-trip-file value="../routes/demo/1000/car.trips.xml"/>
    <route-file value="../routes/demo/1000/car.rou.xml"/>
    <prefix value="car"/>
    <fringe-factor value="max"/>
    <seed value="1000"/>
    <period value="10.0"/>
    <binomial value="100"/>
</configuration>
-->

<!-- generated on 2025-11-24T12:06:39.015332+00:00 by Eclipse SUMO duarouter 1.25.0
<duarouterConfiguration xmlns:xsi="http://www.w3.org/2001/XMLSchema-instance" xsi:noNamespaceSchemaLocation="http://sumo.dlr.de/xsd/duarouterConfiguration.xsd">

    <input>
        <net-file value="../networks/demo/main.net.xml"/>
        <route-files value="../routes/demo/1000/car.trips.xml"/>
    </input>

    <output>
        <output-file value="../routes/demo/1000/car.rou.xml"/>
        <alternatives-output value="NUL"/>
    </output>

    <time>
        <begin value="0"/>
        <end value="3600.0"/>
    </time>

    <report>
        <no-warnings value="true"/>
        <ignore-errors value="true"/>
        <no-step-log value="true"/>
    </report>

</duarouterConfiguration>
-->

<routes xmlns:xsi="http://www.w3.org/2001/XMLSchema-instance" xsi:noNamespaceSchemaLocation="http://sumo.dlr.de/xsd/routes_file.xsd">
    <vehicle id="car0" depart="5.00">
        <route edges="CheMe_1_1 TorPl_2_4 TorPl_2_5"/>
    </vehicle>
    <vehicle id="car1" depart="11.00">
        <route edges="GowSt_1_1 GowSt_1_2 TorPl_1_5 BynPl_1_1 BynPl_1_2 BynPl_1_3 GorSq_1_2 GorSq_1_3"/>
    </vehicle>
    <vehicle id="car2" depart="15.00">
        <route edges="GowSt_1_1 GowSt_1_2 TorPl_1_5 BynPl_1_1 BynPl_1_2 BynPl_1_3 GorSq_2_3"/>
    </vehicle>
    <vehicle id="car3" depart="19.00">
        <route edges="GowSt_2_1 GowSt_2_2 GowSt_2_3"/>
    </vehicle>
    <vehicle id="car4" depart="23.00">
        <route edges="CheMe_1_1 TorPl_2_4 HunSt_1_2"/>
    </vehicle>
    <vehicle id="car5" depart="25.00">
        <route edges="GowSt_1_1 GowSt_1_2 TorPl_2_3 TorPl_2_4 HunSt_1_2"/>
    </vehicle>
    <vehicle id="car6" depart="25.00">
        <route edges="GowSt_2_1 GowSt_2_2 TorPl_2_3 TorPl_2_4 TorPl_2_5"/>
    </vehicle>
    <vehicle id="car7" depart="42.00">
        <route edges="GowSt_2_1 GowSt_2_2 TorPl_1_5 BynPl_1_1 BynPl_1_2 BynPl_1_3 GorSq_2_3"/>
    </vehicle>
    <vehicle id="car8" depart="50.00">
        <route edges="MalSt_2_1 BynPl_1_1 BynPl_1_2 BynPl_1_3 GorSq_2_3"/>
    </vehicle>
    <vehicle id="car9" depart="54.00">
        <route edges="HunSt_1_1 TorPl_2_5"/>
    </vehicle>
    <vehicle id="car10" depart="66.00">
        <route edges="RidGa_2_1 TorPl_2_4 TorPl_2_5"/>
    </vehicle>
    <vehicle id="car11" depart="68.00">
        <route edges="HunSt_1_1 HunSt_1_2"/>
    </vehicle>
    <vehicle id="car12" depart="77.00">
        <route edges="GowSt_2_1 GowSt_2_2 TorPl_2_3 TorPl_2_4 TorPl_2_5"/>
    </vehicle>
    <vehicle id="car13" depart="78.00">
        <route edges="HunSt_1_1 HunSt_1_2"/>
    </vehicle>
    <vehicle id="car14" depart="83.00">
        <route edges="GowSt_1_1 GowSt_1_2 TorPl_1_5 BynPl_1_1 BynPl_1_2 BynPl_1_3 GorSq_1_2 GorSq_1_3"/>
    </vehicle>
    <vehicle id="car15" depart="101.00">
        <route edges="CheMe_1_1 TorPl_2_4 HunSt_1_2"/>
    </vehicle>
    <vehicle id="car16" depart="103.00">
        <route edges="GowSt_2_1 GowSt_2_2 TorPl_1_5 BynPl_1_1 BynPl_1_2 BynPl_1_3 GorSq_1_2 GorSq_1_3"/>
    </vehicle>
    <vehicle id="car17" depart="139.00">
        <route edges="GowSt_1_1 GowSt_1_2 TorPl_1_5 BynPl_1_1 BynPl_1_2 BynPl_1_3 GorSq_1_2 GorSq_1_3"/>
    </vehicle>
    <vehicle id="car18" depart="140.00">
        <route edges="HunSt_1_1 HunSt_1_2"/>
    </vehicle>
    <vehicle id="car19" depart="151.00">
        <route edges="GowSt_1_1 GowSt_1_2 TorPl_2_3 TorPl_2_4 HunSt_1_2"/>
    </vehicle>
    <vehicle id="car20" depart="152.00">
        <route edges="GowSt_1_1 GowSt_1_2 GowSt_1_3"/>
    </vehicle>
    <vehicle id="car21" depart="161.00">
        <route edges="GowSt_2_1 GowSt_2_2 TorPl_2_3 TorPl_2_4 TorPl_2_5"/>
    </vehicle>
    <vehicle id="car22" depart="177.00">
        <route edges="GowSt_2_1 GowSt_2_2 TorPl_2_3 TorPl_2_4 TorPl_2_5"/>
    </vehicle>
    <vehicle id="car23" depart="178.00">
        <route edges="MalSt_2_1 BynPl_1_1 BynPl_1_2 BynPl_1_3 GorSq_2_3"/>
    </vehicle>
    <vehicle id="car24" depart="204.00">
        <route edges="GorSq_1_1 GorSq_1_2 GorSq_1_3"/>
    </vehicle>
    <vehicle id="car25" depart="226.00">
        <route edges="HunSt_1_1 HunSt_1_2"/>
    </vehicle>
    <vehicle id="car26" depart="236.00">
        <route edges="GowSt_2_1 GowSt_2_2 GowSt_2_3"/>
    </vehicle>
    <vehicle id="car27" depart="239.00">
        <route edges="HunSt_1_1 TorPl_2_5"/>
    </vehicle>
    <vehicle id="car28" depart="239.00">
        <route edges="MalSt_2_1 BynPl_1_1 BynPl_1_2 BynPl_1_3 GorSq_1_2 GorSq_1_3"/>
    </vehicle>
    <vehicle id="car29" depart="245.00">
        <route edges="HunSt_1_1 HunSt_1_2"/>
    </vehicle>
    <vehicle id="car30" depart="253.00">
        <route edges="GowSt_2_1 GowSt_2_2 TorPl_1_5 BynPl_1_1 BynPl_1_2 BynPl_1_3 GorSq_1_2 GorSq_1_3"/>
    </vehicle>
    <vehicle id="car31" depart="255.00">
        <route edges="CheMe_1_1 TorPl_2_4 TorPl_2_5"/>
    </vehicle>
    <vehicle id="car32" depart="264.00">
        <route edges="GorSq_1_1 GorSq_1_2 GorSq_1_3"/>
    </vehicle>
    <vehicle id="car33" depart="318.00">
        <route edges="GowSt_2_1 GowSt_2_2 TorPl_2_3 TorPl_2_4 HunSt_1_2"/>
    </vehicle>
    <vehicle id="car34" depart="327.00">
        <route edges="CheMe_1_1 TorPl_2_4 TorPl_2_5"/>
    </vehicle>
    <vehicle id="car35" depart="337.00">
        <route edges="GowSt_2_1 GowSt_2_2 TorPl_2_3 TorPl_2_4 TorPl_2_5"/>
    </vehicle>
    <vehicle id="car36" depart="339.00">
        <route edges="GowSt_2_1 GowSt_2_2 TorPl_1_5 BynPl_1_1 BynPl_1_2 BynPl_1_3 GorSq_1_2 GorSq_1_3"/>
    </vehicle>
    <vehicle id="car37" depart="340.00">
        <route edges="HunSt_1_1 TorPl_2_5"/>
    </vehicle>
    <vehicle id="car38" depart="348.00">
        <route edges="GowSt_2_1 GowSt_2_2 TorPl_2_3 TorPl_2_4 TorPl_2_5"/>
    </vehicle>
    <vehicle id="car39" depart="363.00">
        <route edges="GowSt_2_1 GowSt_2_2 TorPl_1_5 BynPl_1_1 BynPl_1_2 BynPl_1_3 GorSq_2_3"/>
    </vehicle>
    <vehicle id="car40" depart="368.00">
        <route edges="MalSt_2_1 BynPl_1_1 BynPl_1_2 BynPl_1_3 GorSq_1_2 GorSq_1_3"/>
    </vehicle>
    <vehicle id="car41" depart="396.00">
        <route edges="GowSt_1_1 GowSt_1_2 TorPl_2_3 TorPl_2_4 TorPl_2_5"/>
    </vehicle>
    <vehicle id="car42" depart="422.00">
        <route edges="CheMe_1_1 TorPl_2_4 TorPl_2_5"/>
    </vehicle>
    <vehicle id="car43" depart="434.00">
        <route edges="HunSt_1_1 TorPl_2_5"/>
    </vehicle>
    <vehicle id="car44" depart="438.00">
        <route edges="RidGa_2_1 TorPl_2_4 HunSt_1_2"/>
    </vehicle>
    <vehicle id="car45" depart="450.00">
        <route edges="GowSt_2_1 GowSt_2_2 TorPl_2_3 TorPl_2_4 HunSt_1_2"/>
    </vehicle>
    <vehicle id="car46" depart="458.00">
        <route edges="GorSq_1_1 GorSq_1_2 GorSq_1_3"/>
    </vehicle>
    <vehicle id="car47" depart="488.00">
        <route edges="RidGa_2_1 TorPl_2_4 TorPl_2_5"/>
    </vehicle>
    <vehicle id="car48" depart="501.00">
        <route edges="GowSt_2_1 GowSt_2_2 TorPl_2_3 TorPl_2_4 TorPl_2_5"/>
    </vehicle>
    <vehicle id="car49" depart="503.00">
        <route edges="RidGa_2_1 TorPl_2_4 TorPl_2_5"/>
    </vehicle>
    <vehicle id="car50" depart="522.00">
        <route edges="GowSt_1_1 GowSt_1_2 TorPl_1_5 BynPl_1_1 BynPl_1_2 BynPl_1_3 GorSq_2_3"/>
    </vehicle>
    <vehicle id="car51" depart="530.00">
        <route edges="GowSt_1_1 GowSt_1_2 TorPl_2_3 TorPl_2_4 TorPl_2_5"/>
    </vehicle>
    <vehicle id="car52" depart="555.00">
        <route edges="GowSt_1_1 GowSt_1_2 TorPl_2_3 TorPl_2_4 HunSt_1_2"/>
    </vehicle>
    <vehicle id="car53" depart="555.00">
        <route edges="RidGa_2_1 TorPl_2_4 TorPl_2_5"/>
    </vehicle>
    <vehicle id="car54" depart="572.00">
        <route edges="GowSt_2_1 GowSt_2_2 TorPl_2_3 TorPl_2_4 HunSt_1_2"/>
    </vehicle>
    <vehicle id="car55" depart="579.00">
        <route edges="HunSt_1_1 HunSt_1_2"/>
    </vehicle>
    <vehicle id="car56" depart="598.00">
        <route edges="GowSt_1_1 GowSt_1_2 GowSt_1_3"/>
    </vehicle>
    <vehicle id="car57" depart="612.00">
        <route edges="GowSt_1_1 GowSt_1_2 TorPl_1_5 BynPl_1_1 BynPl_1_2 BynPl_1_3 GorSq_1_2 GorSq_1_3"/>
    </vehicle>
    <vehicle id="car58" depart="617.00">
        <route edges="GowSt_2_1 GowSt_2_2 TorPl_1_5 BynPl_1_1 BynPl_1_2 BynPl_1_3 GorSq_1_2 GorSq_1_3"/>
    </vehicle>
    <vehicle id="car59" depart="624.00">
        <route edges="GowSt_1_1 GowSt_1_2 TorPl_2_3 TorPl_2_4 TorPl_2_5"/>
    </vehicle>
    <vehicle id="car60" depart="626.00">
        <route edges="GowSt_1_1 GowSt_1_2 TorPl_2_3 TorPl_2_4 HunSt_1_2"/>
    </vehicle>
    <vehicle id="car61" depart="659.00">
        <route edges="GowSt_1_1 GowSt_1_2 GowSt_1_3"/>
    </vehicle>
    <vehicle id="car62" depart="665.00">
        <route edges="GowSt_2_1 GowSt_2_2 TorPl_2_3 TorPl_2_4 TorPl_2_5"/>
    </vehicle>
    <vehicle id="car63" depart="684.00">
        <route edges="GowSt_1_1 GowSt_1_2 TorPl_1_5 BynPl_1_1 BynPl_1_2 BynPl_1_3 GorSq_2_3"/>
    </vehicle>
    <vehicle id="car64" depart="686.00">
        <route edges="RidGa_2_1 TorPl_2_4 HunSt_1_2"/>
    </vehicle>
    <vehicle id="car65" depart="700.00">
        <route edges="GorSq_1_1 GorSq_1_2 GorSq_1_3"/>
    </vehicle>
    <vehicle id="car66" depart="701.00">
        <route edges="GowSt_2_1 GowSt_2_2 TorPl_2_3 TorPl_2_4 HunSt_1_2"/>
    </vehicle>
    <vehicle id="car67" depart="704.00">
        <route edges="GowSt_1_1 GowSt_1_2 TorPl_2_3 TorPl_2_4 TorPl_2_5"/>
    </vehicle>
    <vehicle id="car68" depart="704.00">
        <route edges="GowSt_2_1 GowSt_2_2 TorPl_2_3 TorPl_2_4 HunSt_1_2"/>
    </vehicle>
    <vehicle id="car69" depart="715.00">
        <route edges="GowSt_2_1 GowSt_2_2 TorPl_2_3 TorPl_2_4 HunSt_1_2"/>
    </vehicle>
    <vehicle id="car70" depart="719.00">
        <route edges="MalSt_2_1 BynPl_1_1 BynPl_1_2 BynPl_1_3 GorSq_1_2 GorSq_1_3"/>
    </vehicle>
    <vehicle id="car71" depart="721.00">
        <route edges="GowSt_2_1 GowSt_2_2 TorPl_1_5 BynPl_1_1 BynPl_1_2 BynPl_1_3 GorSq_2_3"/>
    </vehicle>
    <vehicle id="car72" depart="737.00">
        <route edges="GowSt_1_1 GowSt_1_2 TorPl_2_3 TorPl_2_4 TorPl_2_5"/>
    </vehicle>
    <vehicle id="car73" depart="782.00">
        <route edges="RidGa_2_1 TorPl_2_4 HunSt_1_2"/>
    </vehicle>
    <vehicle id="car74" depart="785.00">
        <route edges="MalSt_2_1 BynPl_1_1 BynPl_1_2 BynPl_1_3 GorSq_1_2 GorSq_1_3"/>
    </vehicle>
    <vehicle id="car75" depart="808.00">
        <route edges="CheMe_1_1 TorPl_2_4 TorPl_2_5"/>
    </vehicle>
    <vehicle id="car76" depart="808.00">
        <route edges="GowSt_1_1 GowSt_1_2 GowSt_1_3"/>
    </vehicle>
    <vehicle id="car77" depart="842.00">
        <route edges="GowSt_1_1 GowSt_1_2 GowSt_1_3"/>
    </vehicle>
    <vehicle id="car78" depart="859.00">
        <route edges="GowSt_1_1 GowSt_1_2 TorPl_1_5 BynPl_1_1 BynPl_1_2 BynPl_1_3 GorSq_2_3"/>
    </vehicle>
    <vehicle id="car79" depart="869.00">
        <route edges="HunSt_1_1 HunSt_1_2"/>
    </vehicle>
    <vehicle id="car80" depart="872.00">
        <route edges="GowSt_1_1 GowSt_1_2 GowSt_1_3"/>
    </vehicle>
    <vehicle id="car81" depart="886.00">
        <route edges="MalSt_2_1 BynPl_1_1 BynPl_1_2 BynPl_1_3 GorSq_2_3"/>
    </vehicle>
    <vehicle id="car82" depart="894.00">
        <route edges="RidGa_2_1 TorPl_2_4 HunSt_1_2"/>
    </vehicle>
    <vehicle id="car83" depart="905.00">
        <route edges="GowSt_2_1 GowSt_2_2 TorPl_1_5 BynPl_1_1 BynPl_1_2 BynPl_1_3 GorSq_2_3"/>
    </vehicle>
    <vehicle id="car84" depart="924.00">
        <route edges="RidGa_2_1 TorPl_2_4 HunSt_1_2"/>
    </vehicle>
    <vehicle id="car85" depart="927.00">
        <route edges="GowSt_2_1 GowSt_2_2 TorPl_1_5 BynPl_1_1 BynPl_1_2 BynPl_1_3 GorSq_2_3"/>
    </vehicle>
    <vehicle id="car86" depart="930.00">
        <route edges="GowSt_1_1 GowSt_1_2 TorPl_2_3 TorPl_2_4 HunSt_1_2"/>
    </vehicle>
    <vehicle id="car87" depart="939.00">
        <route edges="MalSt_2_1 BynPl_1_1 BynPl_1_2 BynPl_1_3 GorSq_2_3"/>
    </vehicle>
    <vehicle id="car88" depart="943.00">
        <route edges="GowSt_2_1 GowSt_2_2 TorPl_1_5 BynPl_1_1 BynPl_1_2 BynPl_1_3 GorSq_2_3"/>
    </vehicle>
    <vehicle id="car89" depart="950.00">
        <route edges="CheMe_1_1 TorPl_2_4 TorPl_2_5"/>
    </vehicle>
    <vehicle id="car90" depart="955.00">
        <route edges="HunSt_1_1 HunSt_1_2"/>
    </vehicle>
    <vehicle id="car91" depart="972.00">
        <route edges="GowSt_2_1 GowSt_2_2 GowSt_2_3"/>
    </vehicle>
    <vehicle id="car92" depart="976.00">
        <route edges="GowSt_2_1 GowSt_2_2 TorPl_1_5 BynPl_1_1 BynPl_1_2 BynPl_1_3 GorSq_1_2 GorSq_1_3"/>
    </vehicle>
    <vehicle id="car93" depart="980.00">
        <route edges="RidGa_2_1 TorPl_2_4 TorPl_2_5"/>
    </vehicle>
    <vehicle id="car94" depart="980.00">
        <route edges="RidGa_2_1 TorPl_2_4 TorPl_2_5"/>
    </vehicle>
    <vehicle id="car95" depart="981.00">
        <route edges="GowSt_2_1 GowSt_2_2 TorPl_2_3 TorPl_2_4 TorPl_2_5"/>
    </vehicle>
    <vehicle id="car96" depart="982.00">
        <route edges="HunSt_1_1 HunSt_1_2"/>
    </vehicle>
    <vehicle id="car97" depart="986.00">
        <route edges="GorSq_1_1 GorSq_1_2 GorSq_1_3"/>
    </vehicle>
    <vehicle id="car98" depart="999.00">
        <route edges="GowSt_1_1 GowSt_1_2 TorPl_1_5 BynPl_1_1 BynPl_1_2 BynPl_1_3 GorSq_1_2 GorSq_1_3"/>
    </vehicle>
    <vehicle id="car99" depart="1003.00">
        <route edges="GowSt_1_1 GowSt_1_2 TorPl_2_3 TorPl_2_4 HunSt_1_2"/>
    </vehicle>
    <vehicle id="car100" depart="1023.00">
        <route edges="GowSt_2_1 GowSt_2_2 GowSt_2_3"/>
    </vehicle>
    <vehicle id="car101" depart="1023.00">
        <route edges="GowSt_2_1 GowSt_2_2 TorPl_1_5 BynPl_1_1 BynPl_1_2 BynPl_1_3 GorSq_1_2 GorSq_1_3"/>
    </vehicle>
    <vehicle id="car102" depart="1023.00">
        <route edges="HunSt_1_1 HunSt_1_2"/>
    </vehicle>
    <vehicle id="car103" depart="1035.00">
        <route edges="GowSt_1_1 GowSt_1_2 TorPl_1_5 BynPl_1_1 BynPl_1_2 BynPl_1_3 GorSq_2_3"/>
    </vehicle>
    <vehicle id="car104" depart="1045.00">
        <route edges="GowSt_2_1 GowSt_2_2 TorPl_2_3 TorPl_2_4 TorPl_2_5"/>
    </vehicle>
    <vehicle id="car105" depart="1045.00">
        <route edges="CheMe_1_1 TorPl_2_4 TorPl_2_5"/>
    </vehicle>
    <vehicle id="car106" depart="1052.00">
        <route edges="HunSt_1_1 TorPl_2_5"/>
    </vehicle>
    <vehicle id="car107" depart="1052.00">
        <route edges="GowSt_1_1 GowSt_1_2 TorPl_1_5 BynPl_1_1 BynPl_1_2 BynPl_1_3 GorSq_2_3"/>
    </vehicle>
    <vehicle id="car108" depart="1055.00">
        <route edges="CheMe_1_1 TorPl_2_4 HunSt_1_2"/>
    </vehicle>
    <vehicle id="car109" depart="1055.00">
        <route edges="CheMe_1_1 TorPl_2_4 TorPl_2_5"/>
    </vehicle>
    <vehicle id="car110" depart="1060.00">
        <route edges="HunSt_1_1 HunSt_1_2"/>
    </vehicle>
    <vehicle id="car111" depart="1061.00">
        <route edges="GowSt_1_1 GowSt_1_2 GowSt_1_3"/>
    </vehicle>
    <vehicle id="car112" depart="1069.00">
        <route edges="GowSt_1_1 GowSt_1_2 TorPl_2_3 TorPl_2_4 HunSt_1_2"/>
    </vehicle>
    <vehicle id="car113" depart="1085.00">
        <route edges="GowSt_2_1 GowSt_2_2 TorPl_2_3 TorPl_2_4 HunSt_1_2"/>
    </vehicle>
    <vehicle id="car114" depart="1097.00">
        <route edges="GowSt_2_1 GowSt_2_2 TorPl_2_3 TorPl_2_4 HunSt_1_2"/>
    </vehicle>
    <vehicle id="car115" depart="1113.00">
        <route edges="GowSt_1_1 GowSt_1_2 TorPl_2_3 TorPl_2_4 HunSt_1_2"/>
    </vehicle>
    <vehicle id="car116" depart="1124.00">
        <route edges="CheMe_1_1 TorPl_2_4 HunSt_1_2"/>
    </vehicle>
    <vehicle id="car117" depart="1134.00">
        <route edges="HunSt_1_1 HunSt_1_2"/>
    </vehicle>
    <vehicle id="car118" depart="1141.00">
        <route edges="RidGa_2_1 TorPl_2_4 HunSt_1_2"/>
    </vehicle>
    <vehicle id="car119" depart="1147.00">
        <route edges="GorSq_1_1 GorSq_1_2 GorSq_1_3"/>
    </vehicle>
    <vehicle id="car120" depart="1153.00">
        <route edges="MalSt_2_1 BynPl_1_1 BynPl_1_2 BynPl_1_3 GorSq_2_3"/>
    </vehicle>
    <vehicle id="car121" depart="1161.00">
        <route edges="GowSt_1_1 GowSt_1_2 TorPl_2_3 TorPl_2_4 TorPl_2_5"/>
    </vehicle>
    <vehicle id="car122" depart="1163.00">
        <route edges="RidGa_2_1 TorPl_2_4 HunSt_1_2"/>
    </vehicle>
    <vehicle id="car123" depart="1168.00">
        <route edges="HunSt_1_1 TorPl_2_5"/>
    </vehicle>
    <vehicle id="car124" depart="1192.00">
        <route edges="GowSt_2_1 GowSt_2_2 TorPl_1_5 BynPl_1_1 BynPl_1_2 BynPl_1_3 GorSq_2_3"/>
    </vehicle>
    <vehicle id="car125" depart="1200.00">
        <route edges="MalSt_2_1 BynPl_1_1 BynPl_1_2 BynPl_1_3 GorSq_1_2 GorSq_1_3"/>
    </vehicle>
    <vehicle id="car126" depart="1211.00">
        <route edges="GowSt_2_1 GowSt_2_2 TorPl_1_5 BynPl_1_1 BynPl_1_2 BynPl_1_3 GorSq_1_2 GorSq_1_3"/>
    </vehicle>
    <vehicle id="car127" depart="1215.00">
        <route edges="MalSt_2_1 BynPl_1_1 BynPl_1_2 BynPl_1_3 GorSq_1_2 GorSq_1_3"/>
    </vehicle>
    <vehicle id="car128" depart="1220.00">
        <route edges="MalSt_2_1 BynPl_1_1 BynPl_1_2 BynPl_1_3 GorSq_1_2 GorSq_1_3"/>
    </vehicle>
    <vehicle id="car129" depart="1234.00">
        <route edges="GowSt_1_1 GowSt_1_2 TorPl_1_5 BynPl_1_1 BynPl_1_2 BynPl_1_3 GorSq_1_2 GorSq_1_3"/>
    </vehicle>
    <vehicle id="car130" depart="1252.00">
        <route edges="MalSt_2_1 BynPl_1_1 BynPl_1_2 BynPl_1_3 GorSq_2_3"/>
    </vehicle>
    <vehicle id="car131" depart="1255.00">
        <route edges="GowSt_1_1 GowSt_1_2 TorPl_2_3 TorPl_2_4 HunSt_1_2"/>
    </vehicle>
    <vehicle id="car132" depart="1265.00">
        <route edges="GowSt_2_1 GowSt_2_2 TorPl_1_5 BynPl_1_1 BynPl_1_2 BynPl_1_3 GorSq_2_3"/>
    </vehicle>
    <vehicle id="car133" depart="1278.00">
        <route edges="RidGa_2_1 TorPl_2_4 TorPl_2_5"/>
    </vehicle>
    <vehicle id="car134" depart="1282.00">
        <route edges="GowSt_1_1 GowSt_1_2 TorPl_1_5 BynPl_1_1 BynPl_1_2 BynPl_1_3 GorSq_1_2 GorSq_1_3"/>
    </vehicle>
    <vehicle id="car135" depart="1292.00">
        <route edges="GowSt_1_1 GowSt_1_2 TorPl_2_3 TorPl_2_4 TorPl_2_5"/>
    </vehicle>
    <vehicle id="car136" depart="1306.00">
        <route edges="CheMe_1_1 TorPl_2_4 TorPl_2_5"/>
    </vehicle>
    <vehicle id="car137" depart="1335.00">
        <route edges="GowSt_2_1 GowSt_2_2 GowSt_2_3"/>
    </vehicle>
    <vehicle id="car138" depart="1373.00">
        <route edges="HunSt_1_1 HunSt_1_2"/>
    </vehicle>
    <vehicle id="car139" depart="1375.00">
        <route edges="GowSt_2_1 GowSt_2_2 GowSt_2_3"/>
    </vehicle>
    <vehicle id="car140" depart="1381.00">
        <route edges="GowSt_2_1 GowSt_2_2 TorPl_2_3 TorPl_2_4 TorPl_2_5"/>
    </vehicle>
    <vehicle id="car141" depart="1385.00">
        <route edges="GowSt_2_1 GowSt_2_2 TorPl_1_5 BynPl_1_1 BynPl_1_2 BynPl_1_3 GorSq_1_2 GorSq_1_3"/>
    </vehicle>
    <vehicle id="car142" depart="1387.00">
        <route edges="GowSt_1_1 GowSt_1_2 TorPl_2_3 TorPl_2_4 HunSt_1_2"/>
    </vehicle>
    <vehicle id="car143" depart="1438.00">
        <route edges="GowSt_1_1 GowSt_1_2 TorPl_2_3 TorPl_2_4 HunSt_1_2"/>
    </vehicle>
    <vehicle id="car144" depart="1449.00">
        <route edges="GowSt_2_1 GowSt_2_2 TorPl_2_3 TorPl_2_4 HunSt_1_2"/>
    </vehicle>
    <vehicle id="car145" depart="1452.00">
        <route edges="GowSt_2_1 GowSt_2_2 TorPl_2_3 TorPl_2_4 TorPl_2_5"/>
    </vehicle>
    <vehicle id="car146" depart="1465.00">
        <route edges="GowSt_1_1 GowSt_1_2 TorPl_1_5 BynPl_1_1 BynPl_1_2 BynPl_1_3 GorSq_2_3"/>
    </vehicle>
    <vehicle id="car147" depart="1466.00">
        <route edges="RidGa_2_1 TorPl_2_4 HunSt_1_2"/>
    </vehicle>
    <vehicle id="car148" depart="1482.00">
        <route edges="HunSt_1_1 HunSt_1_2"/>
    </vehicle>
    <vehicle id="car149" depart="1488.00">
        <route edges="GowSt_2_1 GowSt_2_2 TorPl_2_3 TorPl_2_4 HunSt_1_2"/>
    </vehicle>
    <vehicle id="car150" depart="1494.00">
        <route edges="GowSt_1_1 GowSt_1_2 TorPl_1_5 BynPl_1_1 BynPl_1_2 BynPl_1_3 GorSq_1_2 GorSq_1_3"/>
    </vehicle>
    <vehicle id="car151" depart="1509.00">
        <route edges="GowSt_1_1 GowSt_1_2 TorPl_2_3 TorPl_2_4 HunSt_1_2"/>
    </vehicle>
    <vehicle id="car152" depart="1510.00">
        <route edges="GowSt_2_1 GowSt_2_2 TorPl_1_5 BynPl_1_1 BynPl_1_2 BynPl_1_3 GorSq_2_3"/>
    </vehicle>
    <vehicle id="car153" depart="1516.00">
        <route edges="CheMe_1_1 TorPl_2_4 HunSt_1_2"/>
    </vehicle>
    <vehicle id="car154" depart="1544.00">
        <route edges="GorSq_1_1 GorSq_1_2 GorSq_1_3"/>
    </vehicle>
    <vehicle id="car155" depart="1550.00">
        <route edges="GowSt_2_1 GowSt_2_2 TorPl_2_3 TorPl_2_4 TorPl_2_5"/>
    </vehicle>
    <vehicle id="car156" depart="1566.00">
        <route edges="GowSt_1_1 GowSt_1_2 TorPl_2_3 TorPl_2_4 HunSt_1_2"/>
    </vehicle>
    <vehicle id="car157" depart="1570.00">
        <route edges="HunSt_1_1 HunSt_1_2"/>
    </vehicle>
    <vehicle id="car158" depart="1578.00">
        <route edges="MalSt_2_1 BynPl_1_1 BynPl_1_2 BynPl_1_3 GorSq_1_2 GorSq_1_3"/>
    </vehicle>
    <vehicle id="car159" depart="1582.00">
        <route edges="CheMe_1_1 TorPl_2_4 HunSt_1_2"/>
    </vehicle>
    <vehicle id="car160" depart="1597.00">
        <route edges="GowSt_1_1 GowSt_1_2 TorPl_1_5 BynPl_1_1 BynPl_1_2 BynPl_1_3 GorSq_2_3"/>
    </vehicle>
    <vehicle id="car161" depart="1601.00">
        <route edges="MalSt_2_1 BynPl_1_1 BynPl_1_2 BynPl_1_3 GorSq_1_2 GorSq_1_3"/>
    </vehicle>
    <vehicle id="car162" depart="1618.00">
        <route edges="GowSt_2_1 GowSt_2_2 TorPl_1_5 BynPl_1_1 BynPl_1_2 BynPl_1_3 GorSq_1_2 GorSq_1_3"/>
    </vehicle>
    <vehicle id="car163" depart="1633.00">
        <route edges="HunSt_1_1 HunSt_1_2"/>
    </vehicle>
    <vehicle id="car164" depart="1640.00">
        <route edges="HunSt_1_1 HunSt_1_2"/>
    </vehicle>
    <vehicle id="car165" depart="1641.00">
        <route edges="MalSt_2_1 BynPl_1_1 BynPl_1_2 BynPl_1_3 GorSq_1_2 GorSq_1_3"/>
    </vehicle>
    <vehicle id="car166" depart="1642.00">
        <route edges="GowSt_2_1 GowSt_2_2 TorPl_2_3 TorPl_2_4 TorPl_2_5"/>
    </vehicle>
    <vehicle id="car167" depart="1642.00">
        <route edges="HunSt_1_1 TorPl_2_5"/>
    </vehicle>
    <vehicle id="car168" depart="1651.00">
        <route edges="GowSt_1_1 GowSt_1_2 TorPl_2_3 TorPl_2_4 HunSt_1_2"/>
    </vehicle>
    <vehicle id="car169" depart="1653.00">
        <route edges="HunSt_1_1 HunSt_1_2"/>
    </vehicle>
    <vehicle id="car170" depart="1666.00">
        <route edges="MalSt_2_1 BynPl_1_1 BynPl_1_2 BynPl_1_3 GorSq_1_2 GorSq_1_3"/>
    </vehicle>
    <vehicle id="car171" depart="1667.00">
        <route edges="GowSt_2_1 GowSt_2_2 GowSt_2_3"/>
    </vehicle>
    <vehicle id="car172" depart="1668.00">
        <route edges="GowSt_2_1 GowSt_2_2 TorPl_1_5 BynPl_1_1 BynPl_1_2 BynPl_1_3 GorSq_1_2 GorSq_1_3"/>
    </vehicle>
    <vehicle id="car173" depart="1714.00">
        <route edges="GowSt_2_1 GowSt_2_2 GowSt_2_3"/>
    </vehicle>
    <vehicle id="car174" depart="1725.00">
        <route edges="HunSt_1_1 HunSt_1_2"/>
    </vehicle>
    <vehicle id="car175" depart="1726.00">
        <route edges="GowSt_1_1 GowSt_1_2 TorPl_1_5 BynPl_1_1 BynPl_1_2 BynPl_1_3 GorSq_1_2 GorSq_1_3"/>
    </vehicle>
    <vehicle id="car176" depart="1728.00">
        <route edges="CheMe_1_1 TorPl_2_4 TorPl_2_5"/>
    </vehicle>
    <vehicle id="car177" depart="1743.00">
        <route edges="GowSt_2_1 GowSt_2_2 TorPl_2_3 TorPl_2_4 TorPl_2_5"/>
    </vehicle>
    <vehicle id="car178" depart="1753.00">
        <route edges="GowSt_1_1 GowSt_1_2 TorPl_1_5 BynPl_1_1 BynPl_1_2 BynPl_1_3 GorSq_1_2 GorSq_1_3"/>
    </vehicle>
    <vehicle id="car179" depart="1754.00">
        <route edges="CheMe_1_1 TorPl_2_4 TorPl_2_5"/>
    </vehicle>
    <vehicle id="car180" depart="1755.00">
        <route edges="CheMe_1_1 TorPl_2_4 HunSt_1_2"/>
    </vehicle>
    <vehicle id="car181" depart="1755.00">
        <route edges="GowSt_2_1 GowSt_2_2 TorPl_1_5 BynPl_1_1 BynPl_1_2 BynPl_1_3 GorSq_2_3"/>
    </vehicle>
    <vehicle id="car182" depart="1761.00">
        <route edges="CheMe_1_1 TorPl_2_4 TorPl_2_5"/>
    </vehicle>
    <vehicle id="car183" depart="1773.00">
        <route edges="MalSt_2_1 BynPl_1_1 BynPl_1_2 BynPl_1_3 GorSq_1_2 GorSq_1_3"/>
    </vehicle>
    <vehicle id="car184" depart="1783.00">
        <route edges="GowSt_1_1 GowSt_1_2 GowSt_1_3"/>
    </vehicle>
    <vehicle id="car185" depart="1784.00">
        <route edges="RidGa_2_1 TorPl_2_4 HunSt_1_2"/>
    </vehicle>
    <vehicle id="car186" depart="1791.00">
        <route edges="GowSt_1_1 GowSt_1_2 TorPl_1_5 BynPl_1_1 BynPl_1_2 BynPl_1_3 GorSq_1_2 GorSq_1_3"/>
    </vehicle>
    <vehicle id="car187" depart="1795.00">
        <route edges="HunSt_1_1 HunSt_1_2"/>
    </vehicle>
    <vehicle id="car188" depart="1801.00">
        <route edges="GorSq_1_1 GorSq_1_2 GorSq_1_3"/>
    </vehicle>
    <vehicle id="car189" depart="1824.00">
        <route edges="HunSt_1_1 HunSt_1_2"/>
    </vehicle>
    <vehicle id="car190" depart="1839.00">
        <route edges="GowSt_1_1 GowSt_1_2 TorPl_2_3 TorPl_2_4 HunSt_1_2"/>
    </vehicle>
    <vehicle id="car191" depart="1909.00">
        <route edges="GowSt_1_1 GowSt_1_2 TorPl_1_5 BynPl_1_1 BynPl_1_2 BynPl_1_3 GorSq_1_2 GorSq_1_3"/>
    </vehicle>
    <vehicle id="car192" depart="1910.00">
        <route edges="GowSt_2_1 GowSt_2_2 TorPl_2_3 TorPl_2_4 TorPl_2_5"/>
    </vehicle>
    <vehicle id="car193" depart="1911.00">
        <route edges="GowSt_1_1 GowSt_1_2 TorPl_2_3 TorPl_2_4 HunSt_1_2"/>
    </vehicle>
    <vehicle id="car194" depart="1925.00">
        <route edges="HunSt_1_1 TorPl_2_5"/>
    </vehicle>
    <vehicle id="car195" depart="1941.00">
        <route edges="GowSt_2_1 GowSt_2_2 TorPl_1_5 BynPl_1_1 BynPl_1_2 BynPl_1_3 GorSq_2_3"/>
    </vehicle>
    <vehicle id="car196" depart="1950.00">
        <route edges="MalSt_2_1 BynPl_1_1 BynPl_1_2 BynPl_1_3 GorSq_1_2 GorSq_1_3"/>
    </vehicle>
    <vehicle id="car197" depart="1962.00">
        <route edges="CheMe_1_1 TorPl_2_4 TorPl_2_5"/>
    </vehicle>
    <vehicle id="car198" depart="1967.00">
        <route edges="GowSt_1_1 GowSt_1_2 TorPl_2_3 TorPl_2_4 HunSt_1_2"/>
    </vehicle>
    <vehicle id="car199" depart="1975.00">
        <route edges="MalSt_2_1 BynPl_1_1 BynPl_1_2 BynPl_1_3 GorSq_1_2 GorSq_1_3"/>
    </vehicle>
    <vehicle id="car200" depart="1989.00">
        <route edges="RidGa_2_1 TorPl_2_4 HunSt_1_2"/>
    </vehicle>
    <vehicle id="car201" depart="1990.00">
        <route edges="GowSt_1_1 GowSt_1_2 TorPl_2_3 TorPl_2_4 TorPl_2_5"/>
    </vehicle>
    <vehicle id="car202" depart="1991.00">
        <route edges="GowSt_2_1 GowSt_2_2 TorPl_2_3 TorPl_2_4 HunSt_1_2"/>
    </vehicle>
    <vehicle id="car203" depart="1992.00">
        <route edges="RidGa_2_1 TorPl_2_4 HunSt_1_2"/>
    </vehicle>
    <vehicle id="car204" depart="2014.00">
        <route edges="GorSq_1_1 GorSq_1_2 GorSq_1_3"/>
    </vehicle>
    <vehicle id="car205" depart="2017.00">
        <route edges="CheMe_1_1 TorPl_2_4 TorPl_2_5"/>
    </vehicle>
    <vehicle id="car206" depart="2021.00">
        <route edges="GowSt_2_1 GowSt_2_2 TorPl_2_3 TorPl_2_4 HunSt_1_2"/>
    </vehicle>
    <vehicle id="car207" depart="2028.00">
        <route edges="GowSt_2_1 GowSt_2_2 GowSt_2_3"/>
    </vehicle>
    <vehicle id="car208" depart="2033.00">
        <route edges="GowSt_2_1 GowSt_2_2 TorPl_1_5 BynPl_1_1 BynPl_1_2 BynPl_1_3 GorSq_2_3"/>
    </vehicle>
    <vehicle id="car209" depart="2045.00">
        <route edges="GowSt_2_1 GowSt_2_2 TorPl_1_5 BynPl_1_1 BynPl_1_2 BynPl_1_3 GorSq_1_2 GorSq_1_3"/>
    </vehicle>
    <vehicle id="car210" depart="2047.00">
        <route edges="GorSq_1_1 GorSq_1_2 GorSq_1_3"/>
    </vehicle>
    <vehicle id="car211" depart="2073.00">
        <route edges="MalSt_2_1 BynPl_1_1 BynPl_1_2 BynPl_1_3 GorSq_2_3"/>
    </vehicle>
    <vehicle id="car212" depart="2074.00">
        <route edges="GowSt_2_1 GowSt_2_2 TorPl_2_3 TorPl_2_4 HunSt_1_2"/>
    </vehicle>
    <vehicle id="car213" depart="2082.00">
        <route edges="GowSt_2_1 GowSt_2_2 TorPl_1_5 BynPl_1_1 BynPl_1_2 BynPl_1_3 GorSq_2_3"/>
    </vehicle>
    <vehicle id="car214" depart="2085.00">
        <route edges="GowSt_2_1 GowSt_2_2 TorPl_1_5 BynPl_1_1 BynPl_1_2 BynPl_1_3 GorSq_2_3"/>
    </vehicle>
    <vehicle id="car215" depart="2096.00">
        <route edges="GowSt_2_1 GowSt_2_2 TorPl_1_5 BynPl_1_1 BynPl_1_2 BynPl_1_3 GorSq_1_2 GorSq_1_3"/>
    </vehicle>
    <vehicle id="car216" depart="2098.00">
        <route edges="GowSt_1_1 GowSt_1_2 TorPl_2_3 TorPl_2_4 TorPl_2_5"/>
    </vehicle>
    <vehicle id="car217" depart="2099.00">
        <route edges="RidGa_2_1 TorPl_2_4 HunSt_1_2"/>
    </vehicle>
    <vehicle id="car218" depart="2106.00">
        <route edges="GowSt_1_1 GowSt_1_2 TorPl_2_3 TorPl_2_4 TorPl_2_5"/>
    </vehicle>
    <vehicle id="car219" depart="2113.00">
        <route edges="HunSt_1_1 TorPl_2_5"/>
    </vehicle>
    <vehicle id="car220" depart="2113.00">
        <route edges="CheMe_1_1 TorPl_2_4 TorPl_2_5"/>
    </vehicle>
    <vehicle id="car221" depart="2126.00">
        <route edges="HunSt_1_1 HunSt_1_2"/>
    </vehicle>
    <vehicle id="car222" depart="2135.00">
        <route edges="GowSt_2_1 GowSt_2_2 TorPl_2_3 TorPl_2_4 TorPl_2_5"/>
    </vehicle>
    <vehicle id="car223" depart="2142.00">
        <route edges="RidGa_2_1 TorPl_2_4 HunSt_1_2"/>
    </vehicle>
    <vehicle id="car224" depart="2168.00">