<?xml version="1.0" encoding="UTF-8"?>

<!-- generated on 2025-11-24 09:30:00.364166 by randomTrips.py v1_24_0+0000-b72eb3fabc8
<configuration>
    <net-file value="../networks/demo/main.net.xml"/>
    <output-trip-file value="../routes/demo/car.trips.xml"/>
    <route-file value="../routes/demo/car.rou.xml"/>
    <prefix value="car"/>
    <fringe-factor value="max"/>
    <seed value="140"/>
    <period value="10.0"/>
    <binomial value="100"/>
</configuration>
-->

<!-- generated on 2025-11-24 09:30:00 by Eclipse SUMO duarouter Version 1.24.0
<duarouterConfiguration xmlns:xsi="http://www.w3.org/2001/XMLSchema-instance" xsi:noNamespaceSchemaLocation="http://sumo.dlr.de/xsd/duarouterConfiguration.xsd">

    <input>
        <net-file value="../networks/demo/main.net.xml"/>
        <route-files value="../routes/demo/car.trips.xml"/>
    </input>

    <output>
        <output-file value="../routes/demo/car.rou.xml"/>
        <alternatives-output value="NUL"/>
    </output>

    <time>
        <begin value="0"/>
        <end value="3600.0"/>
    </time>

    <report>
        <no-warnings value="true"/>
        <ignore-errors value="true"/>
        <no-step-log value="true"/>
    </report>

</duarouterConfiguration>
-->

<routes xmlns:xsi="http://www.w3.org/2001/XMLSchema-instance" xsi:noNamespaceSchemaLocation="http://sumo.dlr.de/xsd/routes_file.xsd">
    <vehicle id="car0" depart="12.00">
        <route edges="MalSt_2_1 BynPl_1_1 BynPl_1_2 BynPl_1_3 GorSq_1_2 GorSq_1_3"/>
    </vehicle>
    <vehicle id="car1" depart="30.00">
        <route edges="RidGa_2_1 TorPl_2_4 TorPl_2_5"/>
    </vehicle>
    <vehicle id="car2" depart="49.00">
        <route edges="MalSt_2_1 BynPl_1_1 BynPl_1_2 BynPl_1_3 GorSq_2_3"/>
    </vehicle>
    <vehicle id="car3" depart="50.00">
        <route edges="HunSt_1_1 TorPl_2_5"/>
    </vehicle>
    <vehicle id="car4" depart="55.00">
        <route edges="HunSt_1_1 TorPl_2_5"/>
    </vehicle>
    <vehicle id="car5" depart="60.00">
        <route edges="CheMe_1_1 TorPl_2_4 HunSt_1_2"/>
    </vehicle>
    <vehicle id="car6" depart="84.00">
        <route edges="CheMe_1_1 TorPl_2_4 HunSt_1_2"/>
    </vehicle>
    <vehicle id="car7" depart="85.00">
        <route edges="GowSt_1_1 GowSt_1_2 TorPl_2_3 TorPl_2_4 HunSt_1_2"/>
    </vehicle>
    <vehicle id="car8" depart="87.00">
        <route edges="GowSt_2_1 GowSt_2_2 TorPl_1_5 BynPl_1_1 BynPl_1_2 BynPl_1_3 GorSq_2_3"/>
    </vehicle>
    <vehicle id="car9" depart="118.00">
        <route edges="HunSt_1_1 TorPl_2_5"/>
    </vehicle>
    <vehicle id="car10" depart="118.00">
        <route edges="CheMe_1_1 TorPl_2_4 HunSt_1_2"/>
    </vehicle>
    <vehicle id="car11" depart="127.00">
        <route edges="GowSt_2_1 GowSt_2_2 TorPl_2_3 TorPl_2_4 HunSt_1_2"/>
    </vehicle>
    <vehicle id="car12" depart="132.00">
        <route edges="GowSt_1_1 GowSt_1_2 GowSt_1_3"/>
    </vehicle>
    <vehicle id="car13" depart="139.00">
        <route edges="GowSt_1_1 GowSt_1_2 GowSt_1_3"/>
    </vehicle>
    <vehicle id="car14" depart="156.00">
        <route edges="GowSt_2_1 GowSt_2_2 TorPl_2_3 TorPl_2_4 HunSt_1_2"/>
    </vehicle>
    <vehicle id="car15" depart="177.00">
        <route edges="GowSt_1_1 GowSt_1_2 TorPl_1_5 BynPl_1_1 BynPl_1_2 BynPl_1_3 GorSq_1_2 GorSq_1_3"/>
    </vehicle>
    <vehicle id="car16" depart="198.00">
        <route edges="HunSt_1_1 TorPl_2_5"/>
    </vehicle>
    <vehicle id="car17" depart="203.00">
        <route edges="RidGa_2_1 TorPl_2_4 TorPl_2_5"/>
    </vehicle>
    <vehicle id="car18" depart="209.00">
        <route edges="GowSt_1_1 GowSt_1_2 GowSt_1_3"/>
    </vehicle>
    <vehicle id="car19" depart="238.00">
        <route edges="MalSt_2_1 BynPl_1_1 BynPl_1_2 BynPl_1_3 GorSq_1_2 GorSq_1_3"/>
    </vehicle>
    <vehicle id="car20" depart="239.00">
        <route edges="GowSt_1_1 GowSt_1_2 GowSt_1_3"/>
    </vehicle>
    <vehicle id="car21" depart="240.00">
        <route edges="MalSt_2_1 BynPl_1_1 BynPl_1_2 BynPl_1_3 GorSq_1_2 GorSq_1_3"/>
    </vehicle>
    <vehicle id="car22" depart="244.00">
        <route edges="GowSt_1_1 GowSt_1_2 TorPl_1_5 BynPl_1_1 BynPl_1_2 BynPl_1_3 GorSq_1_2 GorSq_1_3"/>
    </vehicle>
    <vehicle id="car23" depart="258.00">
        <route edges="HunSt_1_1 TorPl_2_5"/>
    </vehicle>
    <vehicle id="car24" depart="258.00">
        <route edges="HunSt_1_1 HunSt_1_2"/>
    </vehicle>
    <vehicle id="car25" depart="270.00">
        <route edges="GowSt_2_1 GowSt_2_2 GowSt_2_3"/>
    </vehicle>
    <vehicle id="car26" depart="273.00">
        <route edges="GorSq_1_1 GorSq_1_2 GorSq_1_3"/>
    </vehicle>
    <vehicle id="car27" depart="290.00">
        <route edges="GowSt_1_1 GowSt_1_2 GowSt_1_3"/>
    </vehicle>
    <vehicle id="car28" depart="296.00">
        <route edges="GowSt_2_1 GowSt_2_2 TorPl_2_3 TorPl_2_4 HunSt_1_2"/>
    </vehicle>
    <vehicle id="car29" depart="304.00">
        <route edges="GowSt_1_1 GowSt_1_2 TorPl_1_5 BynPl_1_1 BynPl_1_2 BynPl_1_3 GorSq_2_3"/>
    </vehicle>
    <vehicle id="car30" depart="308.00">
        <route edges="GowSt_1_1 GowSt_1_2 GowSt_1_3"/>
    </vehicle>
    <vehicle id="car31" depart="316.00">
        <route edges="HunSt_1_1 HunSt_1_2"/>
    </vehicle>
    <vehicle id="car32" depart="332.00">
        <route edges="GowSt_1_1 GowSt_1_2 TorPl_1_5 BynPl_1_1 BynPl_1_2 BynPl_1_3 GorSq_2_3"/>
    </vehicle>
    <vehicle id="car33" depart="352.00">
        <route edges="HunSt_1_1 TorPl_2_5"/>
    </vehicle>
    <vehicle id="car34" depart="369.00">
        <route edges="RidGa_2_1 TorPl_2_4 HunSt_1_2"/>
    </vehicle>
    <vehicle id="car35" depart="377.00">
        <route edges="GowSt_2_1 GowSt_2_2 TorPl_1_5 BynPl_1_1 BynPl_1_2 BynPl_1_3 GorSq_1_2 GorSq_1_3"/>
    </vehicle>
    <vehicle id="car36" depart="388.00">
        <route edges="GowSt_1_1 GowSt_1_2 GowSt_1_3"/>
    </vehicle>
    <vehicle id="car37" depart="406.00">
        <route edges="RidGa_2_1 TorPl_2_4 TorPl_2_5"/>
    </vehicle>
    <vehicle id="car38" depart="420.00">
        <route edges="CheMe_1_1 TorPl_2_4 HunSt_1_2"/>
    </vehicle>
    <vehicle id="car39" depart="421.00">
        <route edges="HunSt_1_1 TorPl_2_5"/>
    </vehicle>
    <vehicle id="car40" depart="426.00">
        <route edges="GowSt_1_1 GowSt_1_2 TorPl_2_3 TorPl_2_4 HunSt_1_2"/>
    </vehicle>
    <vehicle id="car41" depart="427.00">
        <route edges="CheMe_1_1 TorPl_2_4 HunSt_1_2"/>
    </vehicle>
    <vehicle id="car42" depart="427.00">
        <route edges="HunSt_1_1 HunSt_1_2"/>
    </vehicle>
    <vehicle id="car43" depart="428.00">
        <route edges="RidGa_2_1 TorPl_2_4 TorPl_2_5"/>
    </vehicle>
    <vehicle id="car44" depart="438.00">
        <route edges="HunSt_1_1 TorPl_2_5"/>
    </vehicle>
    <vehicle id="car45" depart="448.00">
        <route edges="GowSt_1_1 GowSt_1_2 TorPl_2_3 TorPl_2_4 HunSt_1_2"/>
    </vehicle>
    <vehicle id="car46" depart="449.00">
        <route edges="GorSq_1_1 GorSq_1_2 GorSq_1_3"/>
    </vehicle>
    <vehicle id="car47" depart="473.00">
        <route edges="GowSt_1_1 GowSt_1_2 TorPl_1_5 BynPl_1_1 BynPl_1_2 BynPl_1_3 GorSq_2_3"/>
    </vehicle>
    <vehicle id="car48" depart="487.00">
        <route edges="GowSt_2_1 GowSt_2_2 TorPl_1_5 BynPl_1_1 BynPl_1_2 BynPl_1_3 GorSq_2_3"/>
    </vehicle>
    <vehicle id="car49" depart="500.00">
        <route edges="CheMe_1_1 TorPl_2_4 TorPl_2_5"/>
    </vehicle>
    <vehicle id="car50" depart="514.00">
        <route edges="GowSt_1_1 GowSt_1_2 TorPl_1_5 BynPl_1_1 BynPl_1_2 BynPl_1_3 GorSq_2_3"/>
    </vehicle>
    <vehicle id="car51" depart="521.00">
        <route edges="RidGa_2_1 TorPl_2_4 TorPl_2_5"/>
    </vehicle>
    <vehicle id="car52" depart="524.00">
        <route edges="GowSt_2_1 GowSt_2_2 TorPl_1_5 BynPl_1_1 BynPl_1_2 BynPl_1_3 GorSq_1_2 GorSq_1_3"/>
    </vehicle>
    <vehicle id="car53" depart="532.00">
        <route edges="GowSt_2_1 GowSt_2_2 TorPl_1_5 BynPl_1_1 BynPl_1_2 BynPl_1_3 GorSq_1_2 GorSq_1_3"/>
    </vehicle>
    <vehicle id="car54" depart="533.00">
        <route edges="RidGa_2_1 TorPl_2_4 HunSt_1_2"/>
    </vehicle>
    <vehicle id="car55" depart="540.00">
        <route edges="GowSt_1_1 GowSt_1_2 TorPl_2_3 TorPl_2_4 HunSt_1_2"/>
    </vehicle>
    <vehicle id="car56" depart="542.00">
        <route edges="GowSt_2_1 GowSt_2_2 TorPl_2_3 TorPl_2_4 TorPl_2_5"/>
    </vehicle>
    <vehicle id="car57" depart="579.00">
        <route edges="GowSt_2_1 GowSt_2_2 TorPl_1_5 BynPl_1_1 BynPl_1_2 BynPl_1_3 GorSq_2_3"/>
    </vehicle>
    <vehicle id="car58" depart="595.00">
        <route edges="CheMe_1_1 TorPl_2_4 HunSt_1_2"/>
    </vehicle>
    <vehicle id="car59" depart="605.00">
        <route edges="GowSt_2_1 GowSt_2_2 GowSt_2_3"/>
    </vehicle>
    <vehicle id="car60" depart="607.00">
        <route edges="HunSt_1_1 TorPl_2_5"/>
    </vehicle>
    <vehicle id="car61" depart="613.00">
        <route edges="GowSt_2_1 GowSt_2_2 GowSt_2_3"/>
    </vehicle>
    <vehicle id="car62" depart="619.00">
        <route edges="GowSt_2_1 GowSt_2_2 GowSt_2_3"/>
    </vehicle>
    <vehicle id="car63" depart="650.00">
        <route edges="RidGa_2_1 TorPl_2_4 HunSt_1_2"/>
    </vehicle>
    <vehicle id="car64" depart="659.00">
        <route edges="CheMe_1_1 TorPl_2_4 HunSt_1_2"/>
    </vehicle>
    <vehicle id="car65" depart="679.00">
        <route edges="GowSt_1_1 GowSt_1_2 TorPl_1_5 BynPl_1_1 BynPl_1_2 BynPl_1_3 GorSq_1_2 GorSq_1_3"/>
    </vehicle>
    <vehicle id="car66" depart="680.00">
        <route edges="RidGa_2_1 TorPl_2_4 TorPl_2_5"/>
    </vehicle>
    <vehicle id="car67" depart="682.00">
        <route edges="MalSt_2_1 BynPl_1_1 BynPl_1_2 BynPl_1_3 GorSq_1_2 GorSq_1_3"/>
    </vehicle>
    <vehicle id="car68" depart="697.00">
        <route edges="GowSt_2_1 GowSt_2_2 GowSt_2_3"/>
    </vehicle>
    <vehicle id="car69" depart="701.00">
        <route edges="GorSq_1_1 GorSq_1_2 GorSq_1_3"/>
    </vehicle>
    <vehicle id="car70" depart="709.00">
        <route edges="MalSt_2_1 BynPl_1_1 BynPl_1_2 BynPl_1_3 GorSq_1_2 GorSq_1_3"/>
    </vehicle>
    <vehicle id="car71" depart="709.00">
        <route edges="HunSt_1_1 TorPl_2_5"/>
    </vehicle>
    <vehicle id="car72" depart="738.00">
        <route edges="GowSt_1_1 GowSt_1_2 TorPl_2_3 TorPl_2_4 HunSt_1_2"/>
    </vehicle>
    <vehicle id="car73" depart="758.00">
        <route edges="GowSt_2_1 GowSt_2_2 GowSt_2_3"/>
    </vehicle>
    <vehicle id="car74" depart="765.00">
        <route edges="GowSt_2_1 GowSt_2_2 TorPl_1_5 BynPl_1_1 BynPl_1_2 BynPl_1_3 GorSq_1_2 GorSq_1_3"/>
    </vehicle>
    <vehicle id="car75" depart="779.00">
        <route edges="GowSt_2_1 GowSt_2_2 TorPl_1_5 BynPl_1_1 BynPl_1_2 BynPl_1_3 GorSq_2_3"/>
    </vehicle>
    <vehicle id="car76" depart="812.00">
        <route edges="GowSt_1_1 GowSt_1_2 TorPl_1_5 BynPl_1_1 BynPl_1_2 BynPl_1_3 GorSq_1_2 GorSq_1_3"/>
    </vehicle>
    <vehicle id="car77" depart="815.00">
        <route edges="GowSt_1_1 GowSt_1_2 GowSt_1_3"/>
    </vehicle>
    <vehicle id="car78" depart="821.00">
        <route edges="GorSq_1_1 GorSq_1_2 GorSq_1_3"/>
    </vehicle>
    <vehicle id="car79" depart="825.00">
        <route edges="HunSt_1_1 TorPl_2_5"/>
    </vehicle>
    <vehicle id="car80" depart="832.00">
        <route edges="CheMe_1_1 TorPl_2_4 HunSt_1_2"/>
    </vehicle>
    <vehicle id="car81" depart="848.00">
        <route edges="GowSt_1_1 GowSt_1_2 TorPl_1_5 BynPl_1_1 BynPl_1_2 BynPl_1_3 GorSq_1_2 GorSq_1_3"/>
    </vehicle>
    <vehicle id="car82" depart="851.00">
        <route edges="MalSt_2_1 BynPl_1_1 BynPl_1_2 BynPl_1_3 GorSq_1_2 GorSq_1_3"/>
    </vehicle>
    <vehicle id="car83" depart="876.00">
        <route edges="CheMe_1_1 TorPl_2_4 HunSt_1_2"/>
    </vehicle>
    <vehicle id="car84" depart="876.00">
        <route edges="CheMe_1_1 TorPl_2_4 HunSt_1_2"/>
    </vehicle>
    <vehicle id="car85" depart="877.00">
        <route edges="GowSt_1_1 GowSt_1_2 TorPl_2_3 TorPl_2_4 TorPl_2_5"/>
    </vehicle>
    <vehicle id="car86" depart="895.00">
        <route edges="HunSt_1_1 TorPl_2_5"/>
    </vehicle>
    <vehicle id="car87" depart="900.00">
        <route edges="GowSt_1_1 GowSt_1_2 TorPl_2_3 TorPl_2_4 HunSt_1_2"/>
    </vehicle>
    <vehicle id="car88" depart="916.00">
        <route edges="GowSt_2_1 GowSt_2_2 TorPl_2_3 TorPl_2_4 HunSt_1_2"/>
    </vehicle>
    <vehicle id="car89" depart="921.00">
        <route edges="GowSt_1_1 GowSt_1_2 TorPl_1_5 BynPl_1_1 BynPl_1_2 BynPl_1_3 GorSq_1_2 GorSq_1_3"/>
    </vehicle>
    <vehicle id="car90" depart="930.00">
        <route edges="GowSt_1_1 GowSt_1_2 TorPl_1_5 BynPl_1_1 BynPl_1_2 BynPl_1_3 GorSq_1_2 GorSq_1_3"/>
    </vehicle>
    <vehicle id="car91" depart="941.00">
        <route edges="GowSt_1_1 GowSt_1_2 TorPl_1_5 BynPl_1_1 BynPl_1_2 BynPl_1_3 GorSq_2_3"/>
    </vehicle>
    <vehicle id="car92" depart="942.00">
        <route edges="GowSt_1_1 GowSt_1_2 TorPl_2_3 TorPl_2_4 TorPl_2_5"/>
    </vehicle>
    <vehicle id="car93" depart="943.00">
        <route edges="MalSt_2_1 BynPl_1_1 BynPl_1_2 BynPl_1_3 GorSq_2_3"/>
    </vehicle>
    <vehicle id="car94" depart="944.00">
        <route edges="GowSt_1_1 GowSt_1_2 TorPl_1_5 BynPl_1_1 BynPl_1_2 BynPl_1_3 GorSq_2_3"/>
    </vehicle>
    <vehicle id="car95" depart="949.00">
        <route edges="MalSt_2_1 BynPl_1_1 BynPl_1_2 BynPl_1_3 GorSq_1_2 GorSq_1_3"/>
    </vehicle>
    <vehicle id="car96" depart="951.00">
        <route edges="GowSt_2_1 GowSt_2_2 GowSt_2_3"/>
    </vehicle>
    <vehicle id="car97" depart="952.00">
        <route edges="CheMe_1_1 TorPl_2_4 HunSt_1_2"/>
    </vehicle>
    <vehicle id="car98" depart="977.00">
        <route edges="CheMe_1_1 TorPl_2_4 HunSt_1_2"/>
    </vehicle>
    <vehicle id="car99" depart="1005.00">
        <route edges="GowSt_2_1 GowSt_2_2 TorPl_1_5 BynPl_1_1 BynPl_1_2 BynPl_1_3 GorSq_1_2 GorSq_1_3"/>
    </vehicle>
    <vehicle id="car100" depart="1055.00">
        <route edges="GowSt_1_1 GowSt_1_2 TorPl_1_5 BynPl_1_1 BynPl_1_2 BynPl_1_3 GorSq_1_2 GorSq_1_3"/>
    </vehicle>
    <vehicle id="car101" depart="1061.00">
        <route edges="CheMe_1_1 TorPl_2_4 HunSt_1_2"/>
    </vehicle>
    <vehicle id="car102" depart="1068.00">
        <route edges="GowSt_2_1 GowSt_2_2 GowSt_2_3"/>
    </vehicle>
    <vehicle id="car103" depart="1078.00">
        <route edges="GowSt_1_1 GowSt_1_2 TorPl_2_3 TorPl_2_4 HunSt_1_2"/>
    </vehicle>
    <vehicle id="car104" depart="1082.00">
        <route edges="GorSq_1_1 GorSq_1_2 GorSq_1_3"/>
    </vehicle>
    <vehicle id="car105" depart="1087.00">
        <route edges="MalSt_2_1 BynPl_1_1 BynPl_1_2 BynPl_1_3 GorSq_1_2 GorSq_1_3"/>
    </vehicle>
    <vehicle id="car106" depart="1090.00">
        <route edges="GowSt_2_1 GowSt_2_2 TorPl_1_5 BynPl_1_1 BynPl_1_2 BynPl_1_3 GorSq_1_2 GorSq_1_3"/>
    </vehicle>
    <vehicle id="car107" depart="1098.00">
        <route edges="GowSt_2_1 GowSt_2_2 TorPl_1_5 BynPl_1_1 BynPl_1_2 BynPl_1_3 GorSq_2_3"/>
    </vehicle>
    <vehicle id="car108" depart="1100.00">
        <route edges="RidGa_2_1 TorPl_2_4 HunSt_1_2"/>
    </vehicle>
    <vehicle id="car109" depart="1113.00">
        <route edges="GowSt_2_1 GowSt_2_2 TorPl_2_3 TorPl_2_4 HunSt_1_2"/>
    </vehicle>
    <vehicle id="car110" depart="1114.00">
        <route edges="MalSt_2_1 BynPl_1_1 BynPl_1_2 BynPl_1_3 GorSq_1_2 GorSq_1_3"/>
    </vehicle>
    <vehicle id="car111" depart="1127.00">
        <route edges="HunSt_1_1 TorPl_2_5"/>
    </vehicle>
    <vehicle id="car112" depart="1129.00">
        <route edges="GowSt_1_1 GowSt_1_2 TorPl_2_3 TorPl_2_4 HunSt_1_2"/>
    </vehicle>
    <vehicle id="car113" depart="1149.00">
        <route edges="RidGa_2_1 TorPl_2_4 HunSt_1_2"/>
    </vehicle>
    <vehicle id="car114" depart="1162.00">
        <route edges="HunSt_1_1 TorPl_2_5"/>
    </vehicle>
    <vehicle id="car115" depart="1164.00">
        <route edges="GowSt_1_1 GowSt_1_2 TorPl_1_5 BynPl_1_1 BynPl_1_2 BynPl_1_3 GorSq_1_2 GorSq_1_3"/>
    </vehicle>
    <vehicle id="car116" depart="1174.00">
        <route edges="GowSt_2_1 GowSt_2_2 GowSt_2_3"/>
    </vehicle>
    <vehicle id="car117" depart="1212.00">
        <route edges="GowSt_2_1 GowSt_2_2 TorPl_2_3 TorPl_2_4 HunSt_1_2"/>
    </vehicle>
    <vehicle id="car118" depart="1214.00">
        <route edges="GorSq_1_1 GorSq_1_2 GorSq_1_3"/>
    </vehicle>
    <vehicle id="car119" depart="1218.00">
        <route edges="GowSt_2_1 GowSt_2_2 TorPl_1_5 BynPl_1_1 BynPl_1_2 BynPl_1_3 GorSq_1_2 GorSq_1_3"/>
    </vehicle>
    <vehicle id="car120" depart="1219.00">
        <route edges="GowSt_1_1 GowSt_1_2 GowSt_1_3"/>
    </vehicle>
    <vehicle id="car121" depart="1231.00">
        <route edges="CheMe_1_1 TorPl_2_4 HunSt_1_2"/>
    </vehicle>
    <vehicle id="car122" depart="1234.00">
        <route edges="GowSt_1_1 GowSt_1_2 TorPl_2_3 TorPl_2_4 HunSt_1_2"/>
    </vehicle>
    <vehicle id="car123" depart="1262.00">
        <route edges="GorSq_1_1 GorSq_1_2 GorSq_1_3"/>
    </vehicle>
    <vehicle id="car124" depart="1268.00">
        <route edges="GowSt_2_1 GowSt_2_2 GowSt_2_3"/>
    </vehicle>
    <vehicle id="car125" depart="1271.00">
        <route edges="HunSt_1_1 HunSt_1_2"/>
    </vehicle>
    <vehicle id="car126" depart="1275.00">
        <route edges="HunSt_1_1 HunSt_1_2"/>
    </vehicle>
    <vehicle id="car127" depart="1283.00">
        <route edges="GowSt_1_1 GowSt_1_2 TorPl_1_5 BynPl_1_1 BynPl_1_2 BynPl_1_3 GorSq_1_2 GorSq_1_3"/>
    </vehicle>
    <vehicle id="car128" depart="1291.00">
        <route edges="RidGa_2_1 TorPl_2_4 TorPl_2_5"/>
    </vehicle>
    <vehicle id="car129" depart="1291.00">
        <route edges="RidGa_2_1 TorPl_2_4 TorPl_2_5"/>
    </vehicle>
    <vehicle id="car130" depart="1295.00">
        <route edges="GowSt_1_1 GowSt_1_2 TorPl_1_5 BynPl_1_1 BynPl_1_2 BynPl_1_3 GorSq_2_3"/>
    </vehicle>
    <vehicle id="car131" depart="1295.00">
        <route edges="MalSt_2_1 BynPl_1_1 BynPl_1_2 BynPl_1_3 GorSq_2_3"/>
    </vehicle>
    <vehicle id="car132" depart="1298.00">
        <route edges="GowSt_1_1 GowSt_1_2 GowSt_1_3"/>
    </vehicle>
    <vehicle id="car133" depart="1308.00">
        <route edges="MalSt_2_1 BynPl_1_1 BynPl_1_2 BynPl_1_3 GorSq_2_3"/>
    </vehicle>
    <vehicle id="car134" depart="1310.00">
        <route edges="GowSt_2_1 GowSt_2_2 TorPl_1_5 BynPl_1_1 BynPl_1_2 BynPl_1_3 GorSq_1_2 GorSq_1_3"/>
    </vehicle>
    <vehicle id="car135" depart="1311.00">
        <route edges="CheMe_1_1 TorPl_2_4 HunSt_1_2"/>
    </vehicle>
    <vehicle id="car136" depart="1312.00">
        <route edges="GowSt_2_1 GowSt_2_2 TorPl_2_3 TorPl_2_4 TorPl_2_5"/>
    </vehicle>
    <vehicle id="car137" depart="1326.00">
        <route edges="GowSt_1_1 GowSt_1_2 TorPl_2_3 TorPl_2_4 TorPl_2_5"/>
    </vehicle>
    <vehicle id="car138" depart="1329.00">
        <route edges="CheMe_1_1 TorPl_2_4 TorPl_2_5"/>
    </vehicle>
    <vehicle id="car139" depart="1339.00">
        <route edges="GowSt_2_1 GowSt_2_2 GowSt_2_3"/>
    </vehicle>
    <vehicle id="car140" depart="1342.00">
        <route edges="GowSt_2_1 GowSt_2_2 TorPl_2_3 TorPl_2_4 HunSt_1_2"/>
    </vehicle>
    <vehicle id="car141" depart="1347.00">
        <route edges="GorSq_1_1 GorSq_1_2 GorSq_1_3"/>
    </vehicle>
    <vehicle id="car142" depart="1367.00">
        <route edges="GowSt_2_1 GowSt_2_2 TorPl_1_5 BynPl_1_1 BynPl_1_2 BynPl_1_3 GorSq_2_3"/>
    </vehicle>
    <vehicle id="car143" depart="1393.00">
        <route edges="CheMe_1_1 TorPl_2_4 HunSt_1_2"/>
    </vehicle>
    <vehicle id="car144" depart="1397.00">
        <route edges="RidGa_2_1 TorPl_2_4 HunSt_1_2"/>
    </vehicle>
    <vehicle id="car145" depart="1411.00">
        <route edges="GowSt_1_1 GowSt_1_2 GowSt_1_3"/>
    </vehicle>
    <vehicle id="car146" depart="1413.00">
        <route edges="MalSt_2_1 BynPl_1_1 BynPl_1_2 BynPl_1_3 GorSq_2_3"/>
    </vehicle>
    <vehicle id="car147" depart="1441.00">
        <route edges="RidGa_2_1 TorPl_2_4 HunSt_1_2"/>
    </vehicle>
    <vehicle id="car148" depart="1450.00">
        <route edges="GowSt_2_1 GowSt_2_2 TorPl_1_5 BynPl_1_1 BynPl_1_2 BynPl_1_3 GorSq_1_2 GorSq_1_3"/>
    </vehicle>
    <vehicle id="car149" depart="1451.00">
        <route edges="GowSt_1_1 GowSt_1_2 TorPl_2_3 TorPl_2_4 HunSt_1_2"/>
    </vehicle>
    <vehicle id="car150" depart="1453.00">
        <route edges="RidGa_2_1 TorPl_2_4 HunSt_1_2"/>
    </vehicle>
    <vehicle id="car151" depart="1455.00">
        <route edges="GowSt_2_1 GowSt_2_2 TorPl_1_5 BynPl_1_1 BynPl_1_2 BynPl_1_3 GorSq_2_3"/>
    </vehicle>
    <vehicle id="car152" depart="1479.00">
        <route edges="GowSt_2_1 GowSt_2_2 TorPl_2_3 TorPl_2_4 TorPl_2_5"/>
    </vehicle>
    <vehicle id="car153" depart="1484.00">
        <route edges="MalSt_2_1 BynPl_1_1 BynPl_1_2 BynPl_1_3 GorSq_1_2 GorSq_1_3"/>
    </vehicle>
    <vehicle id="car154" depart="1500.00">
        <route edges="MalSt_2_1 BynPl_1_1 BynPl_1_2 BynPl_1_3 GorSq_2_3"/>
    </vehicle>
    <vehicle id="car155" depart="1505.00">
        <route edges="CheMe_1_1 TorPl_2_4 TorPl_2_5"/>
    </vehicle>
    <vehicle id="car156" depart="1537.00">
        <route edges="GorSq_1_1 GorSq_1_2 GorSq_1_3"/>
    </vehicle>
    <vehicle id="car157" depart="1537.00">
        <route edges="GowSt_2_1 GowSt_2_2 TorPl_1_5 BynPl_1_1 BynPl_1_2 BynPl_1_3 GorSq_2_3"/>
    </vehicle>
    <vehicle id="car158" depart="1568.00">
        <route edges="GowSt_2_1 GowSt_2_2 TorPl_1_5 BynPl_1_1 BynPl_1_2 BynPl_1_3 GorSq_2_3"/>
    </vehicle>
    <vehicle id="car159" depart="1586.00">
        <route edges="GowSt_1_1 GowSt_1_2 GowSt_1_3"/>
    </vehicle>
    <vehicle id="car160" depart="1587.00">
        <route edges="RidGa_2_1 TorPl_2_4 TorPl_2_5"/>
    </vehicle>
    <vehicle id="car161" depart="1590.00">
        <route edges="HunSt_1_1 HunSt_1_2"/>
    </vehicle>
    <vehicle id="car162" depart="1595.00">
        <route edges="GorSq_1_1 GorSq_1_2 GorSq_1_3"/>
    </vehicle>
    <vehicle id="car163" depart="1595.00">
        <route edges="RidGa_2_1 TorPl_2_4 TorPl_2_5"/>
    </vehicle>
    <vehicle id="car164" depart="1606.00">
        <route edges="GowSt_2_1 GowSt_2_2 TorPl_2_3 TorPl_2_4 TorPl_2_5"/>
    </vehicle>
    <vehicle id="car165" depart="1608.00">
        <route edges="GowSt_2_1 GowSt_2_2 TorPl_1_5 BynPl_1_1 BynPl_1_2 BynPl_1_3 GorSq_1_2 GorSq_1_3"/>
    </vehicle>
    <vehicle id="car166" depart="1626.00">
        <route edges="GowSt_2_1 GowSt_2_2 TorPl_2_3 TorPl_2_4 TorPl_2_5"/>
    </vehicle>
    <vehicle id="car167" depart="1637.00">
        <route edges="GowSt_2_1 GowSt_2_2 TorPl_1_5 BynPl_1_1 BynPl_1_2 BynPl_1_3 GorSq_1_2 GorSq_1_3"/>
    </vehicle>
    <vehicle id="car168" depart="1640.00">
        <route edges="GowSt_1_1 GowSt_1_2 TorPl_2_3 TorPl_2_4 TorPl_2_5"/>
    </vehicle>
    <vehicle id="car169" depart="1655.00">
        <route edges="HunSt_1_1 HunSt_1_2"/>
    </vehicle>
    <vehicle id="car170" depart="1663.00">
        <route edges="GowSt_2_1 GowSt_2_2 GowSt_2_3"/>
    </vehicle>
    <vehicle id="car171" depart="1668.00">
        <route edges="GowSt_1_1 GowSt_1_2 TorPl_2_3 TorPl_2_4 HunSt_1_2"/>
    </vehicle>
    <vehicle id="car172" depart="1678.00">
        <route edges="CheMe_1_1 TorPl_2_4 TorPl_2_5"/>
    </vehicle>
    <vehicle id="car173" depart="1684.00">
        <route edges="GorSq_1_1 GorSq_1_2 GorSq_1_3"/>
    </vehicle>
    <vehicle id="car174" depart="1690.00">
        <route edges="HunSt_1_1 HunSt_1_2"/>
    </vehicle>
    <vehicle id="car175" depart="1693.00">
        <route edges="GowSt_2_1 GowSt_2_2 GowSt_2_3"/>
    </vehicle>
    <vehicle id="car176" depart="1699.00">
        <route edges="HunSt_1_1 TorPl_2_5"/>
    </vehicle>
    <vehicle id="car177" depart="1708.00">
        <route edges="GorSq_1_1 GorSq_1_2 GorSq_1_3"/>
    </vehicle>
    <vehicle id="car178" depart="1711.00">
        <route edges="GowSt_1_1 GowSt_1_2 TorPl_2_3 TorPl_2_4 HunSt_1_2"/>
    </vehicle>
    <vehicle id="car179" depart="1724.00">
        <route edges="MalSt_2_1 BynPl_1_1 BynPl_1_2 BynPl_1_3 GorSq_1_2 GorSq_1_3"/>
    </vehicle>
    <vehicle id="car180" depart="1738.00">
        <route edges="GowSt_1_1 GowSt_1_2 TorPl_2_3 TorPl_2_4 TorPl_2_5"/>
    </vehicle>
    <vehicle id="car181" depart="1755.00">
        <route edges="RidGa_2_1 TorPl_2_4 HunSt_1_2"/>
    </vehicle>
    <vehicle id="car182" depart="1790.00">
        <route edges="RidGa_2_1 TorPl_2_4 TorPl_2_5"/>
    </vehicle>
    <vehicle id="car183" depart="1808.00">
        <route edges="GowSt_1_1 GowSt_1_2 GowSt_1_3"/>
    </vehicle>
    <vehicle id="car184" depart="1817.00">
        <route edges="HunSt_1_1 TorPl_2_5"/>
    </vehicle>
    <vehicle id="car185" depart="1834.00">
        <route edges="MalSt_2_1 BynPl_1_1 BynPl_1_2 BynPl_1_3 GorSq_1_2 GorSq_1_3"/>
    </vehicle>
    <vehicle id="car186" depart="1859.00">
        <route edges="HunSt_1_1 HunSt_1_2"/>
    </vehicle>
    <vehicle id="car187" depart="1863.00">
        <route edges="CheMe_1_1 TorPl_2_4 TorPl_2_5"/>
    </vehicle>
    <vehicle id="car188" depart="1867.00">
        <route edges="MalSt_2_1 BynPl_1_1 BynPl_1_2 BynPl_1_3 GorSq_1_2 GorSq_1_3"/>
    </vehicle>
    <vehicle id="car189" depart="1874.00">
        <route edges="MalSt_2_1 BynPl_1_1 BynPl_1_2 BynPl_1_3 GorSq_1_2 GorSq_1_3"/>
    </vehicle>
    <vehicle id="car190" depart="1875.00">
        <route edges="RidGa_2_1 TorPl_2_4 HunSt_1_2"/>
    </vehicle>
    <vehicle id="car191" depart="1895.00">
        <route edges="GowSt_1_1 GowSt_1_2 GowSt_1_3"/>
    </vehicle>
    <vehicle id="car192" depart="1908.00">
        <route edges="GowSt_1_1 GowSt_1_2 TorPl_2_3 TorPl_2_4 TorPl_2_5"/>
    </vehicle>
    <vehicle id="car193" depart="1918.00">
        <route edges="HunSt_1_1 HunSt_1_2"/>
    </vehicle>
    <vehicle id="car194" depart="1923.00">
        <route edges="GowSt_1_1 GowSt_1_2 TorPl_2_3 TorPl_2_4 HunSt_1_2"/>
    </vehicle>
    <vehicle id="car195" depart="1923.00">
        <route edges="GorSq_1_1 GorSq_1_2 GorSq_1_3"/>
    </vehicle>
    <vehicle id="car196" depart="1952.00">
        <route edges="GowSt_1_1 GowSt_1_2 TorPl_2_3 TorPl_2_4 TorPl_2_5"/>
    </vehicle>
    <vehicle id="car197" depart="1963.00">
        <route edges="CheMe_1_1 TorPl_2_4 TorPl_2_5"/>
    </vehicle>
    <vehicle id="car198" depart="1984.00">
        <route edges="GowSt_1_1 GowSt_1_2 GowSt_1_3"/>
    </vehicle>
    <vehicle id="car199" depart="1986.00">
        <route edges="RidGa_2_1 TorPl_2_4 TorPl_2_5"/>
    </vehicle>
    <vehicle id="car200" depart="1988.00">
        <route edges="HunSt_1_1 HunSt_1_2"/>
    </vehicle>
    <vehicle id="car201" depart="1991.00">
        <route edges="GowSt_1_1 GowSt_1_2 TorPl_2_3 TorPl_2_4 TorPl_2_5"/>
    </vehicle>
    <vehicle id="car202" depart="2014.00">
        <route edges="HunSt_1_1 HunSt_1_2"/>
    </vehicle>
    <vehicle id="car203" depart="2017.00">
        <route edges="GowSt_2_1 GowSt_2_2 GowSt_2_3"/>
    </vehicle>
    <vehicle id="car204" depart="2025.00">
        <route edges="RidGa_2_1 TorPl_2_4 HunSt_1_2"/>
    </vehicle>
    <vehicle id="car205" depart="2028.00">
        <route edges="GowSt_1_1 GowSt_1_2 TorPl_2_3 TorPl_2_4 HunSt_1_2"/>
    </vehicle>
    <vehicle id="car206" depart="2051.00">
        <route edges="HunSt_1_1 HunSt_1_2"/>
    </vehicle>
    <vehicle id="car207" depart="2054.00">
        <route edges="GowSt_1_1 GowSt_1_2 TorPl_2_3 TorPl_2_4 TorPl_2_5"/>
    </vehicle>
    <vehicle id="car208" depart="2056.00">
        <route edges="HunSt_1_1 HunSt_1_2"/>
    </vehicle>
    <vehicle id="car209" depart="2060.00">
        <route edges="GowSt_1_1 GowSt_1_2 TorPl_2_3 TorPl_2_4 HunSt_1_2"/>
    </vehicle>
    <vehicle id="car210" depart="2062.00">
        <route edges="GowSt_1_1 GowSt_1_2 TorPl_2_3 TorPl_2_4 TorPl_2_5"/>
    </vehicle>
    <vehicle id="car211" depart="2064.00">
        <route edges="GowSt_2_1 GowSt_2_2 GowSt_2_3"/>
    </vehicle>
    <vehicle id="car212" depart="2068.00">
        <route edges="MalSt_2_1 BynPl_1_1 BynPl_1_2 BynPl_1_3 GorSq_1_2 GorSq_1_3"/>
    </vehicle>
    <vehicle id="car213" depart="2075.00">
        <route edges="GorSq_1_1 GorSq_1_2 GorSq_1_3"/>
    </vehicle>
    <vehicle id="car214" depart="2110.00">
        <route edges="GowSt_2_1 GowSt_2_2 TorPl_1_5 BynPl_1_1 BynPl_1_2 BynPl_1_3 GorSq_1_2 GorSq_1_3"/>
    </vehicle>
    <vehicle id="car215" depart="2116.00">
        <route edges="HunSt_1_1 TorPl_2_5"/>
    </vehicle>
    <vehicle id="car216" depart="2126.00">
        <route edges="GorSq_1_1 GorSq_1_2 GorSq_1_3"/>
    </vehicle>
    <vehicle id="car217" depart="2133.00">
        <route edges="RidGa_2_1 TorPl_2_4 HunSt_1_2"/>
    </vehicle>
    <vehicle id="car218" depart="2146.00">
        <route edges="GowSt_2_1 GowSt_2_2 TorPl_2_3 TorPl_2_4 HunSt_1_2"/>
    </vehicle>
    <vehicle id="car219" depart="2159.00">
        <route edges="GowSt_1_1 GowSt_1_2 TorPl_1_5 BynPl_1_1 BynPl_1_2 BynPl_1_3 GorSq_2_3"/>
    </vehicle>
    <vehicle id="car220" depart="2165.00">
        <route edges="CheMe_1_1 TorPl_2_4 TorPl_2_5"/>
    </vehicle>
    <vehicle id="car221" depart="2166.00">
        <route edges="MalSt_2_1 BynPl_1_1 BynPl_1_2 BynPl_1_3 GorSq_2_3"/>
    </vehicle>
    <vehicle id="car222" depart="2175.00">
        <route edges="HunSt_1_1 TorPl_2_5"/>
    </vehicle>
    <vehicle id="car223" depart="2175.00">
        <route edges="GowSt_1_1 GowSt_1_2 TorPl_2_3 TorPl_2_4 HunSt_1_2"/>