<?xml version="1.0" encoding="UTF-8"?>

<!-- generated on 2025-11-19 09:51:07.305376 by randomTrips.py v1_24_0+0000-b72eb3fabc8
<configuration>
    <net-file value="../networks/demo/main.net.xml"/>
    <output-trip-file value="../routes/demo/car.trips.xml"/>
    <route-file value="../routes/demo/car.rou.xml"/>
    <prefix value="car"/>
    <fringe-factor value="max"/>
    <seed value="1041"/>
    <period value="10.0"/>
    <binomial value="100"/>
</configuration>
-->

<routes xmlns:xsi="http://www.w3.org/2001/XMLSchema-instance" xsi:noNamespaceSchemaLocation="http://sumo.dlr.de/xsd/routes_file.xsd">
    <trip id="car0" depart="8.00" from="GowSt_2_1" to="TorPl_2_5"/>
    <trip id="car1" depart="9.00" from="GowSt_1_1" to="HunSt_1_2"/>
    <trip id="car2" depart="9.00" from="GorSq_1_1" to="GorSq_1_3"/>
    <trip id="car3" depart="29.00" from="HunSt_1_1" to="HunSt_1_2"/>
    <trip id="car4" depart="39.00" from="MalSt_2_1" to="GorSq_1_3"/>
    <trip id="car5" depart="40.00" from="HunSt_1_1" to="TorPl_2_5"/>
    <trip id="car6" depart="45.00" from="CheMe_1_1" to="HunSt_1_2"/>
    <trip id="car7" depart="69.00" from="HunSt_1_1" to="HunSt_1_2"/>
    <trip id="car8" depart="75.00" from="GowSt_1_1" to="TorPl_2_5"/>
    <trip id="car9" depart="81.00" from="GowSt_2_1" to="GorSq_1_3"/>
    <trip id="car10" depart="94.00" from="GowSt_2_1" to="GorSq_1_3"/>
    <trip id="car11" depart="116.00" from="MalSt_2_1" to="GorSq_1_3"/>
    <trip id="car12" depart="119.00" from="RidGa_2_1" to="HunSt_1_2"/>
    <trip id="car13" depart="145.00" from="GorSq_1_1" to="GorSq_1_3"/>
    <trip id="car14" depart="153.00" from="HunSt_1_1" to="TorPl_2_5"/>
    <trip id="car15" depart="163.00" from="CheMe_1_1" to="HunSt_1_2"/>
    <trip id="car16" depart="170.00" from="GowSt_2_1" to="GorSq_1_3"/>
    <trip id="car17" depart="172.00" from="GorSq_1_1" to="GorSq_1_3"/>
    <trip id="car18" depart="182.00" from="GowSt_1_1" to="HunSt_1_2"/>
    <trip id="car19" depart="211.00" from="GowSt_2_1" to="GowSt_2_3"/>
    <trip id="car20" depart="217.00" from="GowSt_1_1" to="GorSq_1_3"/>
    <trip id="car21" depart="217.00" from="MalSt_2_1" to="GorSq_1_3"/>
    <trip id="car22" depart="241.00" from="CheMe_1_1" to="HunSt_1_2"/>
    <trip id="car23" depart="249.00" from="GowSt_2_1" to="GorSq_2_3"/>
    <trip id="car24" depart="252.00" from="GowSt_1_1" to="HunSt_1_2"/>
    <trip id="car25" depart="257.00" from="GowSt_1_1" to="TorPl_2_5"/>
    <trip id="car26" depart="266.00" from="GowSt_2_1" to="GorSq_2_3"/>
    <trip id="car27" depart="272.00" from="CheMe_1_1" to="TorPl_2_5"/>
    <trip id="car28" depart="283.00" from="GowSt_1_1" to="GowSt_1_3"/>
    <trip id="car29" depart="287.00" from="RidGa_2_1" to="HunSt_1_2"/>
    <trip id="car30" depart="293.00" from="GorSq_1_1" to="GorSq_1_3"/>
    <trip id="car31" depart="298.00" from="HunSt_1_1" to="HunSt_1_2"/>
    <trip id="car32" depart="306.00" from="GowSt_1_1" to="GorSq_1_3"/>
    <trip id="car33" depart="338.00" from="GowSt_1_1" to="GowSt_1_3"/>
    <trip id="car34" depart="345.00" from="CheMe_1_1" to="HunSt_1_2"/>
    <trip id="car35" depart="345.00" from="GowSt_1_1" to="HunSt_1_2"/>
    <trip id="car36" depart="348.00" from="GowSt_1_1" to="GorSq_1_3"/>
    <trip id="car37" depart="350.00" from="GowSt_2_1" to="TorPl_2_5"/>
    <trip id="car38" depart="371.00" from="GowSt_2_1" to="GowSt_2_3"/>
    <trip id="car39" depart="410.00" from="RidGa_2_1" to="HunSt_1_2"/>
    <trip id="car40" depart="425.00" from="GowSt_2_1" to="GowSt_2_3"/>
    <trip id="car41" depart="432.00" from="GorSq_1_1" to="GorSq_1_3"/>
    <trip id="car42" depart="462.00" from="MalSt_2_1" to="GorSq_2_3"/>
    <trip id="car43" depart="471.00" from="RidGa_2_1" to="HunSt_1_2"/>
    <trip id="car44" depart="478.00" from="GowSt_1_1" to="TorPl_2_5"/>
    <trip id="car45" depart="480.00" from="RidGa_2_1" to="TorPl_2_5"/>
    <trip id="car46" depart="491.00" from="GowSt_1_1" to="GorSq_2_3"/>
    <trip id="car47" depart="526.00" from="GowSt_2_1" to="TorPl_2_5"/>
    <trip id="car48" depart="536.00" from="GowSt_1_1" to="GorSq_1_3"/>
    <trip id="car49" depart="537.00" from="GowSt_1_1" to="GorSq_2_3"/>
    <trip id="car50" depart="541.00" from="GorSq_1_1" to="GorSq_1_3"/>
    <trip id="car51" depart="551.00" from="HunSt_1_1" to="HunSt_1_2"/>
    <trip id="car52" depart="562.00" from="GowSt_2_1" to="TorPl_2_5"/>
    <trip id="car53" depart="606.00" from="HunSt_1_1" to="TorPl_2_5"/>
    <trip id="car54" depart="606.00" from="GowSt_1_1" to="HunSt_1_2"/>
    <trip id="car55" depart="619.00" from="CheMe_1_1" to="HunSt_1_2"/>
    <trip id="car56" depart="622.00" from="GowSt_1_1" to="GowSt_1_3"/>
    <trip id="car57" depart="623.00" from="GowSt_2_1" to="TorPl_2_5"/>
    <trip id="car58" depart="629.00" from="GorSq_1_1" to="GorSq_1_3"/>
    <trip id="car59" depart="656.00" from="RidGa_2_1" to="HunSt_1_2"/>
    <trip id="car60" depart="676.00" from="GowSt_1_1" to="GorSq_2_3"/>
    <trip id="car61" depart="677.00" from="MalSt_2_1" to="GorSq_2_3"/>
    <trip id="car62" depart="678.00" from="GowSt_1_1" to="HunSt_1_2"/>
    <trip id="car63" depart="681.00" from="GowSt_2_1" to="GorSq_2_3"/>
    <trip id="car64" depart="705.00" from="GowSt_1_1" to="GorSq_2_3"/>
    <trip id="car65" depart="716.00" from="GowSt_1_1" to="HunSt_1_2"/>
    <trip id="car66" depart="748.00" from="GowSt_1_1" to="TorPl_2_5"/>
    <trip id="car67" depart="752.00" from="MalSt_2_1" to="GorSq_1_3"/>
    <trip id="car68" depart="772.00" from="HunSt_1_1" to="HunSt_1_2"/>
    <trip id="car69" depart="783.00" from="MalSt_2_1" to="GorSq_2_3"/>
    <trip id="car70" depart="784.00" from="GowSt_2_1" to="GorSq_1_3"/>
    <trip id="car71" depart="785.00" from="MalSt_2_1" to="GorSq_2_3"/>
    <trip id="car72" depart="796.00" from="CheMe_1_1" to="HunSt_1_2"/>
    <trip id="car73" depart="800.00" from="HunSt_1_1" to="HunSt_1_2"/>
    <trip id="car74" depart="839.00" from="GowSt_1_1" to="GowSt_1_3"/>
    <trip id="car75" depart="871.00" from="RidGa_2_1" to="HunSt_1_2"/>
    <trip id="car76" depart="876.00" from="GowSt_2_1" to="HunSt_1_2"/>
    <trip id="car77" depart="899.00" from="GowSt_2_1" to="HunSt_1_2"/>
    <trip id="car78" depart="902.00" from="GorSq_1_1" to="GorSq_1_3"/>
    <trip id="car79" depart="916.00" from="GowSt_2_1" to="GorSq_1_3"/>
    <trip id="car80" depart="928.00" from="GorSq_1_1" to="GorSq_1_3"/>
    <trip id="car81" depart="930.00" from="GowSt_2_1" to="TorPl_2_5"/>
    <trip id="car82" depart="935.00" from="HunSt_1_1" to="TorPl_2_5"/>
    <trip id="car83" depart="958.00" from="GowSt_2_1" to="GorSq_2_3"/>
    <trip id="car84" depart="973.00" from="CheMe_1_1" to="HunSt_1_2"/>
    <trip id="car85" depart="996.00" from="MalSt_2_1" to="GorSq_2_3"/>
    <trip id="car86" depart="1000.00" from="MalSt_2_1" to="GorSq_2_3"/>
    <trip id="car87" depart="1012.00" from="CheMe_1_1" to="HunSt_1_2"/>
    <trip id="car88" depart="1015.00" from="HunSt_1_1" to="TorPl_2_5"/>
    <trip id="car89" depart="1049.00" from="GorSq_1_1" to="GorSq_1_3"/>
    <trip id="car90" depart="1089.00" from="RidGa_2_1" to="HunSt_1_2"/>
    <trip id="car91" depart="1108.00" from="GowSt_2_1" to="GowSt_2_3"/>
    <trip id="car92" depart="1136.00" from="HunSt_1_1" to="HunSt_1_2"/>
    <trip id="car93" depart="1144.00" from="CheMe_1_1" to="TorPl_2_5"/>
    <trip id="car94" depart="1170.00" from="CheMe_1_1" to="TorPl_2_5"/>
    <trip id="car95" depart="1170.00" from="GowSt_1_1" to="GowSt_1_3"/>
    <trip id="car96" depart="1171.00" from="GowSt_1_1" to="TorPl_2_5"/>
    <trip id="car97" depart="1213.00" from="GorSq_1_1" to="GorSq_1_3"/>
    <trip id="car98" depart="1220.00" from="GowSt_1_1" to="GowSt_1_3"/>
    <trip id="car99" depart="1239.00" from="RidGa_2_1" to="HunSt_1_2"/>
    <trip id="car100" depart="1241.00" from="GowSt_2_1" to="GowSt_2_3"/>
    <trip id="car101" depart="1245.00" from="MalSt_2_1" to="GorSq_2_3"/>
    <trip id="car102" depart="1258.00" from="GowSt_2_1" to="GowSt_2_3"/>
    <trip id="car103" depart="1264.00" from="GowSt_1_1" to="GorSq_2_3"/>
    <trip id="car104" depart="1275.00" from="GowSt_1_1" to="GorSq_1_3"/>
    <trip id="car105" depart="1288.00" from="RidGa_2_1" to="TorPl_2_5"/>
    <trip id="car106" depart="1312.00" from="GowSt_2_1" to="GorSq_2_3"/>
    <trip id="car107" depart="1320.00" from="CheMe_1_1" to="HunSt_1_2"/>
    <trip id="car108" depart="1322.00" from="MalSt_2_1" to="GorSq_1_3"/>
    <trip id="car109" depart="1333.00" from="GowSt_2_1" to="GorSq_1_3"/>
    <trip id="car110" depart="1345.00" from="GowSt_1_1" to="GorSq_1_3"/>
    <trip id="car111" depart="1350.00" from="GowSt_1_1" to="GorSq_2_3"/>
    <trip id="car112" depart="1355.00" from="GowSt_1_1" to="TorPl_2_5"/>
    <trip id="car113" depart="1357.00" from="MalSt_2_1" to="GorSq_1_3"/>
    <trip id="car114" depart="1366.00" from="GowSt_1_1" to="GowSt_1_3"/>
    <trip id="car115" depart="1371.00" from="GowSt_2_1" to="GorSq_1_3"/>
    <trip id="car116" depart="1387.00" from="CheMe_1_1" to="HunSt_1_2"/>
    <trip id="car117" depart="1411.00" from="HunSt_1_1" to="HunSt_1_2"/>
    <trip id="car118" depart="1417.00" from="GorSq_1_1" to="GorSq_1_3"/>
    <trip id="car119" depart="1430.00" from="RidGa_2_1" to="TorPl_2_5"/>
    <trip id="car120" depart="1452.00" from="CheMe_1_1" to="TorPl_2_5"/>
    <trip id="car121" depart="1460.00" from="GowSt_2_1" to="TorPl_2_5"/>
    <trip id="car122" depart="1462.00" from="MalSt_2_1" to="GorSq_2_3"/>
    <trip id="car123" depart="1471.00" from="MalSt_2_1" to="GorSq_2_3"/>
    <trip id="car124" depart="1482.00" from="GowSt_2_1" to="GowSt_2_3"/>
    <trip id="car125" depart="1487.00" from="GowSt_2_1" to="HunSt_1_2"/>
    <trip id="car126" depart="1508.00" from="MalSt_2_1" to="GorSq_2_3"/>
    <trip id="car127" depart="1551.00" from="GowSt_2_1" to="TorPl_2_5"/>
    <trip id="car128" depart="1570.00" from="GowSt_1_1" to="GowSt_1_3"/>
    <trip id="car129" depart="1573.00" from="GowSt_1_1" to="GorSq_1_3"/>
    <trip id="car130" depart="1579.00" from="GowSt_2_1" to="GorSq_2_3"/>
    <trip id="car131" depart="1583.00" from="MalSt_2_1" to="GorSq_1_3"/>
    <trip id="car132" depart="1600.00" from="MalSt_2_1" to="GorSq_2_3"/>
    <trip id="car133" depart="1604.00" from="CheMe_1_1" to="HunSt_1_2"/>
    <trip id="car134" depart="1608.00" from="HunSt_1_1" to="TorPl_2_5"/>
    <trip id="car135" depart="1637.00" from="HunSt_1_1" to="TorPl_2_5"/>
    <trip id="car136" depart="1638.00" from="GowSt_1_1" to="GorSq_1_3"/>
    <trip id="car137" depart="1639.00" from="GowSt_2_1" to="GorSq_1_3"/>
    <trip id="car138" depart="1644.00" from="GorSq_1_1" to="GorSq_1_3"/>
    <trip id="car139" depart="1648.00" from="RidGa_2_1" to="TorPl_2_5"/>
    <trip id="car140" depart="1652.00" from="MalSt_2_1" to="GorSq_2_3"/>
    <trip id="car141" depart="1655.00" from="GorSq_1_1" to="GorSq_1_3"/>
    <trip id="car142" depart="1658.00" from="GorSq_1_1" to="GorSq_1_3"/>
    <trip id="car143" depart="1675.00" from="RidGa_2_1" to="HunSt_1_2"/>
    <trip id="car144" depart="1675.00" from="GowSt_1_1" to="TorPl_2_5"/>
    <trip id="car145" depart="1678.00" from="GorSq_1_1" to="GorSq_1_3"/>
    <trip id="car146" depart="1681.00" from="MalSt_2_1" to="GorSq_1_3"/>
    <trip id="car147" depart="1707.00" from="GowSt_1_1" to="GorSq_1_3"/>
    <trip id="car148" depart="1716.00" from="GorSq_1_1" to="GorSq_1_3"/>
    <trip id="car149" depart="1717.00" from="GowSt_2_1" to="GowSt_2_3"/>
    <trip id="car150" depart="1728.00" from="CheMe_1_1" to="HunSt_1_2"/>
    <trip id="car151" depart="1738.00" from="GowSt_2_1" to="GowSt_2_3"/>
    <trip id="car152" depart="1740.00" from="GowSt_1_1" to="TorPl_2_5"/>
    <trip id="car153" depart="1741.00" from="GorSq_1_1" to="GorSq_1_3"/>
    <trip id="car154" depart="1741.00" from="CheMe_1_1" to="HunSt_1_2"/>
    <trip id="car155" depart="1744.00" from="HunSt_1_1" to="TorPl_2_5"/>
    <trip id="car156" depart="1771.00" from="RidGa_2_1" to="HunSt_1_2"/>
    <trip id="car157" depart="1777.00" from="MalSt_2_1" to="GorSq_1_3"/>
    <trip id="car158" depart="1783.00" from="GowSt_1_1" to="HunSt_1_2"/>
    <trip id="car159" depart="1797.00" from="GorSq_1_1" to="GorSq_1_3"/>
    <trip id="car160" depart="1801.00" from="RidGa_2_1" to="HunSt_1_2"/>
    <trip id="car161" depart="1805.00" from="GowSt_2_1" to="GowSt_2_3"/>
    <trip id="car162" depart="1806.00" from="GowSt_1_1" to="TorPl_2_5"/>
    <trip id="car163" depart="1811.00" from="RidGa_2_1" to="HunSt_1_2"/>
    <trip id="car164" depart="1815.00" from="GowSt_1_1" to="GorSq_1_3"/>
    <trip id="car165" depart="1822.00" from="HunSt_1_1" to="TorPl_2_5"/>
    <trip id="car166" depart="1824.00" from="GowSt_2_1" to="GowSt_2_3"/>
    <trip id="car167" depart="1833.00" from="HunSt_1_1" to="HunSt_1_2"/>
    <trip id="car168" depart="1847.00" from="GowSt_1_1" to="GorSq_2_3"/>
    <trip id="car169" depart="1865.00" from="GowSt_1_1" to="TorPl_2_5"/>
    <trip id="car170" depart="1882.00" from="GowSt_2_1" to="TorPl_2_5"/>
    <trip id="car171" depart="1888.00" from="GowSt_2_1" to="GorSq_2_3"/>
    <trip id="car172" depart="1903.00" from="GowSt_2_1" to="HunSt_1_2"/>
    <trip id="car173" depart="1915.00" from="CheMe_1_1" to="TorPl_2_5"/>
    <trip id="car174" depart="1925.00" from="GowSt_1_1" to="GorSq_2_3"/>
    <trip id="car175" depart="1930.00" from="CheMe_1_1" to="TorPl_2_5"/>
    <trip id="car176" depart="1932.00" from="GowSt_1_1" to="GorSq_1_3"/>
    <trip id="car177" depart="1934.00" from="HunSt_1_1" to="TorPl_2_5"/>
    <trip id="car178" depart="1938.00" from="GowSt_1_1" to="GorSq_1_3"/>
    <trip id="car179" depart="1954.00" from="GowSt_1_1" to="GowSt_1_3"/>
    <trip id="car180" depart="1955.00" from="GowSt_1_1" to="GorSq_2_3"/>
    <trip id="car181" depart="1966.00" from="GowSt_2_1" to="GorSq_2_3"/>
    <trip id="car182" depart="1970.00" from="GowSt_2_1" to="GorSq_1_3"/>
    <trip id="car183" depart="1977.00" from="MalSt_2_1" to="GorSq_1_3"/>
    <trip id="car184" depart="2007.00" from="HunSt_1_1" to="HunSt_1_2"/>
    <trip id="car185" depart="2010.00" from="GowSt_1_1" to="GorSq_2_3"/>
    <trip id="car186" depart="2012.00" from="RidGa_2_1" to="HunSt_1_2"/>
    <trip id="car187" depart="2025.00" from="GowSt_2_1" to="GorSq_2_3"/>
    <trip id="car188" depart="2029.00" from="GowSt_2_1" to="HunSt_1_2"/>
    <trip id="car189" depart="2091.00" from="MalSt_2_1" to="GorSq_2_3"/>
    <trip id="car190" depart="2119.00" from="GowSt_2_1" to="GorSq_2_3"/>
    <trip id="car191" depart="2130.00" from="HunSt_1_1" to="HunSt_1_2"/>
    <trip id="car192" depart="2147.00" from="RidGa_2_1" to="HunSt_1_2"/>
    <trip id="car193" depart="2148.00" from="HunSt_1_1" to="TorPl_2_5"/>
    <trip id="car194" depart="2156.00" from="HunSt_1_1" to="HunSt_1_2"/>
    <trip id="car195" depart="2160.00" from="GowSt_1_1" to="GorSq_1_3"/>
    <trip id="car196" depart="2161.00" from="CheMe_1_1" to="TorPl_2_5"/>
    <trip id="car197" depart="2168.00" from="GorSq_1_1" to="GorSq_1_3"/>
    <trip id="car198" depart="2199.00" from="HunSt_1_1" to="HunSt_1_2"/>
    <trip id="car199" depart="2246.00" from="GowSt_1_1" to="GorSq_1_3"/>
    <trip id="car200" depart="2254.00" from="GowSt_2_1" to="GorSq_2_3"/>
    <trip id="car201" depart="2275.00" from="GowSt_1_1" to="GowSt_1_3"/>
    <trip id="car202" depart="2278.00" from="CheMe_1_1" to="TorPl_2_5"/>
    <trip id="car203" depart="2283.00" from="GowSt_1_1" to="HunSt_1_2"/>
    <trip id="car204" depart="2287.00" from="CheMe_1_1" to="HunSt_1_2"/>
    <trip id="car205" depart="2287.00" from="HunSt_1_1" to="HunSt_1_2"/>
    <trip id="car206" depart="2287.00" from="GowSt_2_1" to="GowSt_2_3"/>
    <trip id="car207" depart="2291.00" from="GowSt_2_1" to="GorSq_1_3"/>
    <trip id="car208" depart="2293.00" from="GowSt_2_1" to="HunSt_1_2"/>
    <trip id="car209" depart="2294.00" from="HunSt_1_1" to="TorPl_2_5"/>
    <trip id="car210" depart="2300.00" from="RidGa_2_1" to="HunSt_1_2"/>
    <trip id="car211" depart="2310.00" from="GowSt_1_1" to="HunSt_1_2"/>
    <trip id="car212" depart="2312.00" from="GowSt_2_1" to="GowSt_2_3"/>
    <trip id="car213" depart="2314.00" from="CheMe_1_1" to="TorPl_2_5"/>
    <trip id="car214" depart="2336.00" from="GowSt_1_1" to="TorPl_2_5"/>
    <trip id="car215" depart="2361.00" from="GowSt_2_1" to="GorSq_1_3"/>
    <trip id="car216" depart="2366.00" from="GowSt_2_1" to="GorSq_2_3"/>
    <trip id="car217" depart="2373.00" from="RidGa_2_1" to="HunSt_1_2"/>
    <trip id="car218" depart="2377.00" from="GowSt_2_1" to="GorSq_2_3"/>
    <trip id="car219" depart="2381.00" from="GowSt_2_1" to="GorSq_2_3"/>
    <trip id="car220" depart="2397.00" from="CheMe_1_1" to="TorPl_2_5"/>
    <trip id="car221" depart="2398.00" from="GowSt_2_1" to="GowSt_2_3"/>
    <trip id="car222" depart="2416.00" from="GowSt_1_1" to="HunSt_1_2"/>
    <trip id="car223" depart="2444.00" from="GorSq_1_1" to="GorSq_1_3"/>
    <trip id="car224" depart="2448.00" from="GowSt_1_1" to="GorSq_1_3"/>
    <trip id="car225" depart="2469.00" from="GowSt_1_1" to="TorPl_2_5"/>
    <trip id="car226" depart="2476.00" from="GowSt_1_1" to="GorSq_1_3"/>
    <trip id="car227" depart="2480.00" from="GowSt_2_1" to="GorSq_2_3"/>
    <trip id="car228" depart="2481.00" from="GowSt_1_1" to="GorSq_2_3"/>
    <trip id="car229" depart="2481.00" from="MalSt_2_1" to="GorSq_1_3"/>
    <trip id="car230" depart="2491.00" from="HunSt_1_1" to="HunSt_1_2"/>
    <trip id="car231" depart="2495.00" from="GowSt_1_1" to="GorSq_1_3"/>
    <trip id="car232" depart="2509.00" from="MalSt_2_1" to="GorSq_1_3"/>
    <trip id="car233" depart="2513.00" from="GowSt_2_1" to="TorPl_2_5"/>
    <trip id="car234" depart="2522.00" from="GowSt_2_1" to="HunSt_1_2"/>
    <trip id="car235" depart="2537.00" from="CheMe_1_1" to="TorPl_2_5"/>
    <trip id="car236" depart="2537.00" from="GorSq_1_1" to="GorSq_1_3"/>
    <trip id="car237" depart="2540.00" from="HunSt_1_1" to="HunSt_1_2"/>
    <trip id="car238" depart="2550.00" from="GowSt_2_1" to="GorSq_2_3"/>
    <trip id="car239" depart="2601.00" from="GowSt_2_1" to="GorSq_2_3"/>
    <trip id="car240" depart="2608.00" from="CheMe_1_1" to="TorPl_2_5"/>
    <trip id="car241" depart="2613.00" from="MalSt_2_1" to="GorSq_2_3"/>
    <trip id="car242" depart="2645.00" from="GowSt_1_1" to="GorSq_1_3"/>
    <trip id="car243" depart="2654.00" from="HunSt_1_1" to="TorPl_2_5"/>
    <trip id="car244" depart="2660.00" from="GowSt_2_1" to="GorSq_2_3"/>
    <trip id="car245" depart="2671.00" from="GowSt_1_1" to="GowSt_1_3"/>
    <trip id="car246" depart="2673.00" from="GowSt_2_1" to="HunSt_1_2"/>
    <trip id="car247" depart="2696.00" from="GowSt_2_1" to="TorPl_2_5"/>
    <trip id="car248" depart="2703.00" from="GorSq_1_1" to="GorSq_1_3"/>
    <trip id="car249" depart="2705.00" from="GowSt_1_1" to="GorSq_2_3"/>
    <trip id="car250" depart="2726.00" from="HunSt_1_1" to="TorPl_2_5"/>
    <trip id="car251" depart="2730.00" from="HunSt_1_1" to="TorPl_2_5"/>
    <trip id="car252" depart="2736.00" from="RidGa_2_1" to="HunSt_1_2"/>
    <trip id="car253" depart="2748.00" from="GowSt_2_1" to="TorPl_2_5"/>
    <trip id="car254" depart="2763.00" from="GorSq_1_1" to="GorSq_1_3"/>
    <trip id="car255" depart="2772.00" from="CheMe_1_1" to="TorPl_2_5"/>
    <trip id="car256" depart="2783.00" from="MalSt_2_1" to="GorSq_2_3"/>
    <trip id="car257" depart="2783.00" from="GowSt_2_1" to="TorPl_2_5"/>
    <trip id="car258" depart="2789.00" from="MalSt_2_1" to="GorSq_1_3"/>
    <trip id="car259" depart="2793.00" from="RidGa_2_1" to="TorPl_2_5"/>
    <trip id="car260" depart="2816.00" from="GowSt_2_1" to="TorPl_2_5"/>
    <trip id="car261" depart="2836.00" from="GowSt_2_1" to="HunSt_1_2"/>
    <trip id="car262" depart="2842.00" from="RidGa_2_1" to="HunSt_1_2"/>
    <trip id="car263" depart="2843.00" from="HunSt_1_1" to="HunSt_1_2"/>
    <trip id="car264" depart="2844.00" from="GowSt_1_1" to="GorSq_2_3"/>
    <trip id="car265" depart="2867.00" from="GowSt_2_1" to="GowSt_2_3"/>
    <trip id="car266" depart="2883.00" from="GowSt_2_1" to="GorSq_1_3"/>
    <trip id="car267" depart="2897.00" from="GorSq_1_1" to="GorSq_1_3"/>
    <trip id="car268" depart="2897.00" from="HunSt_1_1" to="HunSt_1_2"/>
    <trip id="car269" depart="2924.00" from="GowSt_1_1" to="GorSq_2_3"/>
    <trip id="car270" depart="2935.00" from="GowSt_1_1" to="HunSt_1_2"/>
    <trip id="car271" depart="2942.00" from="GowSt_1_1" to="GorSq_1_3"/>
    <trip id="car272" depart="2949.00" from="GowSt_1_1" to="GorSq_1_3"/>
    <trip id="car273" depart="2962.00" from="GowSt_1_1" to="TorPl_2_5"/>
    <trip id="car274" depart="2966.00" from="CheMe_1_1" to="TorPl_2_5"/>
    <trip id="car275" depart="2976.00" from="GowSt_1_1" to="GorSq_2_3"/>
    <trip id="car276" depart="2987.00" from="GorSq_1_1" to="GorSq_1_3"/>
    <trip id="car277" depart="2994.00" from="GowSt_1_1" to="TorPl_2_5"/>
    <trip id="car278" depart="3001.00" from="GowSt_2_1" to="GorSq_1_3"/>
    <trip id="car279" depart="3042.00" from="GorSq_1_1" to="GorSq_1_3"/>
    <trip id="car280" depart="3051.00" from="GowSt_1_1" to="GorSq_2_3"/>
    <trip id="car281" depart="3067.00" from="GowSt_1_1" to="GorSq_2_3"/>
    <trip id="car282" depart="3081.00" from="GowSt_1_1" to="GorSq_1_3"/>
    <trip id="car283" depart="3083.00" from="GowSt_2_1" to="HunSt_1_2"/>
    <trip id="car284" depart="3084.00" from="RidGa_2_1" to="TorPl_2_5"/>
    <trip id="car285" depart="3101.00" from="GowSt_1_1" to="TorPl_2_5"/>
    <trip id="car286" depart="3107.00" from="GowSt_2_1" to="GorSq_1_3"/>
    <trip id="car287" depart="3116.00" from="GowSt_2_1" to="GowSt_2_3"/>
    <trip id="car288" depart="3124.00" from="GowSt_1_1" to="GowSt_1_3"/>
    <trip id="car289" depart="3177.00" from="GowSt_2_1" to="TorPl_2_5"/>
    <trip id="car290" depart="3180.00" from="GowSt_2_1" to="TorPl_2_5"/>
    <trip id="car291" depart="3182.00" from="GowSt_2_1" to="GowSt_2_3"/>
    <trip id="car292" depart="3184.00" from="GowSt_2_1" to="GowSt_2_3"/>
    <trip id="car293" depart="3184.00" from="GowSt_2_1" to="GorSq_1_3"/>
    <trip id="car294" depart="3185.00" from="HunSt_1_1" to="HunSt_1_2"/>
    <trip id="car295" depart="3221.00" from="MalSt_2_1" to="GorSq_2_3"/>
    <trip id="car296" depart="3229.00" from="HunSt_1_1" to="HunSt_1_2"/>
    <trip id="car297" depart="3239.00" from="MalSt_2_1" to="GorSq_2_3"/>
    <trip id="car298" depart="3239.00" from="HunSt_1_1" to="HunSt_1_2"/>
    <trip id="car299" depart="3242.00" from="GowSt_2_1" to="GorSq_2_3"/>
    <trip id="car300" depart="3249.00" from="GowSt_1_1" to="HunSt_1_2"/>
    <trip id="car301" depart="3263.00" from="GorSq_1_1" to="GorSq_1_3"/>
    <trip id="car302" depart="3265.00" from="MalSt_2_1" to="GorSq_1_3"/>
    <trip id="car303" depart="3277.00" from="GowSt_2_1" to="GorSq_2_3"/>
    <trip id="car304" depart="3287.00" from="GowSt_1_1" to="GorSq_2_3"/>
    <trip id="car305" depart="3291.00" from="GowSt_1_1" to="GowSt_1_3"/>
    <trip id="car306" depart="3291.00" from="RidGa_2_1" to="TorPl_2_5"/>
    <trip id="car307" depart="3293.00" from="GowSt_1_1" to="GowSt_1_3"/>
    <trip id="car308" depart="3302.00" from="MalSt_2_1" to="GorSq_1_3"/>
    <trip id="car309" depart="3316.00" from="GowSt_2_1" to="GorSq_1_3"/>
    <trip id="car310" depart="3341.00" from="GowSt_1_1" to="GorSq_2_3"/>
    <trip id="car311" depart="3345.00" from="GowSt_1_1" to="GorSq_2_3"/>
    <trip id="car312" depart="3348.00" from="GowSt_2_1" to="GorSq_2_3"/>
    <trip id="car313" depart="3367.00" from="GowSt_1_1" to="GorSq_2_3"/>
    <trip id="car314" depart="3367.00" from="MalSt_2_1" to="GorSq_1_3"/>
    <trip id="car315" depart="3373.00" from="MalSt_2_1" to="GorSq_2_3"/>
    <trip id="car316" depart="3391.00" from="GowSt_2_1" to="GorSq_2_3"/>
    <trip id="car317" depart="3398.00" from="GowSt_2_1" to="GowSt_2_3"/>
    <trip id="car318" depart="3410.00" from="GowSt_2_1" to="HunSt_1_2"/>
    <trip id="car319" depart="3412.00" from="MalSt_2_1" to="GorSq_1_3"/>
    <trip id="car320" depart="3416.00" from="CheMe_1_1" to="TorPl_2_5"/>
    <trip id="car321" depart="3421.00" from="GorSq_1_1" to="GorSq_1_3"/>
    <trip id="car322" depart="3435.00" from="GowSt_2_1" to="GorSq_1_3"/>
    <trip id="car323" depart="3444.00" from="CheMe_1_1" to="HunSt_1_2"/>
    <trip id="car324" depart="3470.00" from="GowSt_2_1" to="TorPl_2_5"/>
    <trip id="car325" depart="3500.00" from="GowSt_2_1" to="TorPl_2_5"/>
    <trip id="car326" depart="3523.00" from="RidGa_2_1" to="TorPl_2_5"/>
    <trip id="car327" depart="3523.00" from="GowSt_2_1" to="GorSq_1_3"/>
    <trip id="car328" depart="3545.00" from="GorSq_1_1" to="GorSq_1_3"/>
    <trip id="car329" depart="3545.00" from="GowSt_2_1" to="GorSq_2_3"/>
    <trip id="car330" depart="3596.00" from="CheMe_1_1" to="HunSt_1_2"/>
</routes>
