<?xml version="1.0" encoding="UTF-8"?>

<!-- generated on 2025-11-16 12:38:49.806774 by randomTrips.py v1_24_0+0000-b72eb3fabc8
<configuration>
    <net-file value="../networks/demo/main.net.xml"/>
    <output-trip-file value="../routes/demo/car.trips.xml"/>
    <route-file value="../routes/demo/car.rou.xml"/>
    <prefix value="car"/>
    <fringe-factor value="max"/>
    <period value="5.0"/>
    <binomial value="100"/>
</configuration>
-->

<routes xmlns:xsi="http://www.w3.org/2001/XMLSchema-instance" xsi:noNamespaceSchemaLocation="http://sumo.dlr.de/xsd/routes_file.xsd">
    <trip id="car0" depart="0.00" from="GowSt_1_1" to="GorSq_1_3"/>
    <trip id="car1" depart="5.00" from="GowSt_1_1" to="GowSt_1_2"/>
    <trip id="car2" depart="15.00" from="GowSt_2_1" to="GorSq_1_3"/>
    <trip id="car3" depart="18.00" from="HunSt_1_1" to="TorPl_2_4"/>
    <trip id="car4" depart="19.00" from="GowSt_1_1" to="HunSt_1_2"/>
    <trip id="car5" depart="29.00" from="GorSq_1_1" to="GorSq_1_3"/>
    <trip id="car6" depart="29.00" from="GowSt_2_1" to="HunSt_1_2"/>
    <trip id="car7" depart="48.00" from="CheMe_1_1" to="HunSt_1_2"/>
    <trip id="car8" depart="48.00" from="GowSt_1_1" to="TorPl_2_4"/>
    <trip id="car9" depart="49.00" from="GowSt_2_1" to="HunSt_1_2"/>
    <trip id="car10" depart="53.00" from="GowSt_2_1" to="HunSt_1_2"/>
    <trip id="car11" depart="57.00" from="CheMe_1_1" to="TorPl_2_4"/>
    <trip id="car12" depart="65.00" from="GorSq_1_1" to="GorSq_1_3"/>
    <trip id="car13" depart="74.00" from="HunSt_1_1" to="TorPl_2_4"/>
    <trip id="car14" depart="79.00" from="HunSt_1_1" to="HunSt_1_2"/>
    <trip id="car15" depart="88.00" from="GowSt_2_1" to="GorSq_1_3"/>
    <trip id="car16" depart="90.00" from="GowSt_1_1" to="GowSt_1_2"/>
    <trip id="car17" depart="91.00" from="GowSt_2_1" to="GorSq_2_3"/>
    <trip id="car18" depart="96.00" from="MalSt_2_1" to="GorSq_2_3"/>
    <trip id="car19" depart="96.00" from="RidGa_2_1" to="HunSt_1_2"/>
    <trip id="car20" depart="97.00" from="GowSt_1_1" to="HunSt_1_2"/>
    <trip id="car21" depart="110.00" from="RidGa_2_1" to="HunSt_1_2"/>
    <trip id="car22" depart="111.00" from="GowSt_2_1" to="GorSq_2_3"/>
    <trip id="car23" depart="120.00" from="GowSt_1_1" to="TorPl_2_4"/>
    <trip id="car24" depart="122.00" from="GowSt_2_1" to="GorSq_1_3"/>
    <trip id="car25" depart="125.00" from="GowSt_2_1" to="HunSt_1_2"/>
    <trip id="car26" depart="136.00" from="GowSt_2_1" to="GorSq_2_3"/>
    <trip id="car27" depart="154.00" from="GowSt_1_1" to="HunSt_1_2"/>
    <trip id="car28" depart="160.00" from="CheMe_1_1" to="TorPl_2_4"/>
    <trip id="car29" depart="173.00" from="RidGa_2_1" to="TorPl_2_4"/>
    <trip id="car30" depart="177.00" from="CheMe_1_1" to="TorPl_2_4"/>
    <trip id="car31" depart="179.00" from="GowSt_1_1" to="GowSt_1_2"/>
    <trip id="car32" depart="203.00" from="CheMe_1_1" to="TorPl_2_4"/>
    <trip id="car33" depart="208.00" from="GowSt_2_1" to="GowSt_2_2"/>
    <trip id="car34" depart="208.00" from="GowSt_1_1" to="GorSq_1_3"/>
    <trip id="car35" depart="212.00" from="GowSt_1_1" to="GorSq_2_3"/>
    <trip id="car36" depart="212.00" from="GowSt_2_1" to="GowSt_2_2"/>
    <trip id="car37" depart="213.00" from="GorSq_1_1" to="GorSq_1_3"/>
    <trip id="car38" depart="217.00" from="MalSt_2_1" to="GorSq_2_3"/>
    <trip id="car39" depart="226.00" from="GowSt_2_1" to="HunSt_1_2"/>
    <trip id="car40" depart="228.00" from="CheMe_1_1" to="HunSt_1_2"/>
    <trip id="car41" depart="232.00" from="MalSt_2_1" to="GorSq_1_3"/>
    <trip id="car42" depart="233.00" from="GowSt_1_1" to="GorSq_1_3"/>
    <trip id="car43" depart="237.00" from="CheMe_1_1" to="HunSt_1_2"/>
    <trip id="car44" depart="243.00" from="RidGa_2_1" to="TorPl_2_4"/>
    <trip id="car45" depart="246.00" from="RidGa_2_1" to="TorPl_2_4"/>
    <trip id="car46" depart="252.00" from="GowSt_1_1" to="GorSq_2_3"/>
    <trip id="car47" depart="254.00" from="GowSt_2_1" to="GowSt_2_2"/>
    <trip id="car48" depart="254.00" from="CheMe_1_1" to="TorPl_2_4"/>
    <trip id="car49" depart="256.00" from="GowSt_2_1" to="TorPl_2_4"/>
    <trip id="car50" depart="259.00" from="GowSt_1_1" to="HunSt_1_2"/>
    <trip id="car51" depart="259.00" from="GowSt_2_1" to="GowSt_2_2"/>
    <trip id="car52" depart="263.00" from="MalSt_2_1" to="GorSq_2_3"/>
    <trip id="car53" depart="263.00" from="HunSt_1_1" to="HunSt_1_2"/>
    <trip id="car54" depart="278.00" from="GowSt_1_1" to="HunSt_1_2"/>
    <trip id="car55" depart="289.00" from="GowSt_1_1" to="TorPl_2_4"/>
    <trip id="car56" depart="289.00" from="RidGa_2_1" to="HunSt_1_2"/>
    <trip id="car57" depart="293.00" from="HunSt_1_1" to="TorPl_2_4"/>
    <trip id="car58" depart="296.00" from="GorSq_1_1" to="GorSq_1_3"/>
    <trip id="car59" depart="296.00" from="GowSt_1_1" to="GorSq_1_3"/>
    <trip id="car60" depart="302.00" from="GowSt_2_1" to="GowSt_2_2"/>
    <trip id="car61" depart="305.00" from="GowSt_1_1" to="TorPl_2_4"/>
    <trip id="car62" depart="307.00" from="GowSt_2_1" to="GorSq_2_3"/>
    <trip id="car63" depart="307.00" from="CheMe_1_1" to="HunSt_1_2"/>
    <trip id="car64" depart="310.00" from="CheMe_1_1" to="TorPl_2_4"/>
    <trip id="car65" depart="312.00" from="GowSt_2_1" to="GorSq_2_3"/>
    <trip id="car66" depart="314.00" from="HunSt_1_1" to="TorPl_2_4"/>
    <trip id="car67" depart="320.00" from="GowSt_2_1" to="GorSq_1_3"/>
    <trip id="car68" depart="326.00" from="GowSt_1_1" to="HunSt_1_2"/>
    <trip id="car69" depart="340.00" from="CheMe_1_1" to="HunSt_1_2"/>
    <trip id="car70" depart="343.00" from="GowSt_1_1" to="GorSq_2_3"/>
    <trip id="car71" depart="345.00" from="GowSt_2_1" to="GorSq_1_3"/>
    <trip id="car72" depart="357.00" from="GowSt_1_1" to="HunSt_1_2"/>
    <trip id="car73" depart="358.00" from="HunSt_1_1" to="TorPl_2_4"/>
    <trip id="car74" depart="364.00" from="MalSt_2_1" to="GorSq_1_3"/>
    <trip id="car75" depart="374.00" from="CheMe_1_1" to="TorPl_2_4"/>
    <trip id="car76" depart="377.00" from="CheMe_1_1" to="HunSt_1_2"/>
    <trip id="car77" depart="379.00" from="GowSt_1_1" to="TorPl_2_4"/>
    <trip id="car78" depart="379.00" from="GowSt_1_1" to="HunSt_1_2"/>
    <trip id="car79" depart="405.00" from="GowSt_1_1" to="GowSt_1_2"/>
    <trip id="car80" depart="407.00" from="MalSt_2_1" to="GorSq_2_3"/>
    <trip id="car81" depart="408.00" from="CheMe_1_1" to="TorPl_2_4"/>
    <trip id="car82" depart="416.00" from="GowSt_2_1" to="HunSt_1_2"/>
    <trip id="car83" depart="424.00" from="HunSt_1_1" to="TorPl_2_4"/>
    <trip id="car84" depart="427.00" from="GowSt_2_1" to="GorSq_2_3"/>
    <trip id="car85" depart="428.00" from="GowSt_1_1" to="HunSt_1_2"/>
    <trip id="car86" depart="433.00" from="GowSt_1_1" to="GorSq_1_3"/>
    <trip id="car87" depart="435.00" from="RidGa_2_1" to="HunSt_1_2"/>
    <trip id="car88" depart="436.00" from="GowSt_1_1" to="TorPl_2_4"/>
    <trip id="car89" depart="439.00" from="GorSq_1_1" to="GorSq_1_3"/>
    <trip id="car90" depart="448.00" from="GowSt_2_1" to="GorSq_1_3"/>
    <trip id="car91" depart="459.00" from="HunSt_1_1" to="HunSt_1_2"/>
    <trip id="car92" depart="463.00" from="RidGa_2_1" to="HunSt_1_2"/>
    <trip id="car93" depart="464.00" from="GowSt_2_1" to="HunSt_1_2"/>
    <trip id="car94" depart="464.00" from="GowSt_1_1" to="HunSt_1_2"/>
    <trip id="car95" depart="464.00" from="GowSt_1_1" to="GowSt_1_2"/>
    <trip id="car96" depart="466.00" from="GowSt_2_1" to="GowSt_2_2"/>
    <trip id="car97" depart="468.00" from="GowSt_2_1" to="GorSq_2_3"/>
    <trip id="car98" depart="478.00" from="GowSt_2_1" to="HunSt_1_2"/>
    <trip id="car99" depart="482.00" from="GowSt_1_1" to="TorPl_2_4"/>
    <trip id="car100" depart="485.00" from="RidGa_2_1" to="HunSt_1_2"/>
    <trip id="car101" depart="494.00" from="CheMe_1_1" to="TorPl_2_4"/>
    <trip id="car102" depart="494.00" from="MalSt_2_1" to="GorSq_2_3"/>
    <trip id="car103" depart="495.00" from="CheMe_1_1" to="HunSt_1_2"/>
    <trip id="car104" depart="502.00" from="GowSt_1_1" to="GorSq_2_3"/>
    <trip id="car105" depart="510.00" from="CheMe_1_1" to="HunSt_1_2"/>
    <trip id="car106" depart="514.00" from="RidGa_2_1" to="HunSt_1_2"/>
    <trip id="car107" depart="516.00" from="RidGa_2_1" to="HunSt_1_2"/>
    <trip id="car108" depart="526.00" from="GowSt_2_1" to="GorSq_2_3"/>
    <trip id="car109" depart="531.00" from="RidGa_2_1" to="TorPl_2_4"/>
    <trip id="car110" depart="539.00" from="GowSt_2_1" to="GorSq_1_3"/>
    <trip id="car111" depart="540.00" from="GowSt_1_1" to="GorSq_1_3"/>
    <trip id="car112" depart="549.00" from="GowSt_1_1" to="GorSq_1_3"/>
    <trip id="car113" depart="550.00" from="HunSt_1_1" to="HunSt_1_2"/>
    <trip id="car114" depart="554.00" from="GowSt_2_1" to="GorSq_1_3"/>
    <trip id="car115" depart="566.00" from="HunSt_1_1" to="TorPl_2_4"/>
    <trip id="car116" depart="567.00" from="GowSt_1_1" to="TorPl_2_4"/>
    <trip id="car117" depart="568.00" from="GowSt_1_1" to="GorSq_2_3"/>
    <trip id="car118" depart="575.00" from="RidGa_2_1" to="HunSt_1_2"/>
    <trip id="car119" depart="580.00" from="GowSt_1_1" to="TorPl_2_4"/>
    <trip id="car120" depart="583.00" from="HunSt_1_1" to="HunSt_1_2"/>
    <trip id="car121" depart="597.00" from="GowSt_1_1" to="GowSt_1_2"/>
    <trip id="car122" depart="597.00" from="GowSt_2_1" to="HunSt_1_2"/>
    <trip id="car123" depart="608.00" from="HunSt_1_1" to="TorPl_2_4"/>
    <trip id="car124" depart="611.00" from="GowSt_2_1" to="GowSt_2_2"/>
    <trip id="car125" depart="612.00" from="GowSt_1_1" to="GorSq_2_3"/>
    <trip id="car126" depart="619.00" from="GowSt_2_1" to="HunSt_1_2"/>
    <trip id="car127" depart="626.00" from="GowSt_2_1" to="GorSq_1_3"/>
    <trip id="car128" depart="629.00" from="GowSt_1_1" to="GorSq_1_3"/>
    <trip id="car129" depart="633.00" from="CheMe_1_1" to="TorPl_2_4"/>
    <trip id="car130" depart="650.00" from="GowSt_1_1" to="HunSt_1_2"/>
    <trip id="car131" depart="662.00" from="RidGa_2_1" to="HunSt_1_2"/>
    <trip id="car132" depart="664.00" from="GowSt_1_1" to="GorSq_2_3"/>
    <trip id="car133" depart="665.00" from="GowSt_2_1" to="GowSt_2_2"/>
    <trip id="car134" depart="677.00" from="GowSt_1_1" to="GowSt_1_2"/>
    <trip id="car135" depart="681.00" from="GowSt_1_1" to="GorSq_1_3"/>
    <trip id="car136" depart="691.00" from="RidGa_2_1" to="TorPl_2_4"/>
    <trip id="car137" depart="691.00" from="RidGa_2_1" to="HunSt_1_2"/>
    <trip id="car138" depart="692.00" from="GowSt_1_1" to="GorSq_1_3"/>
    <trip id="car139" depart="692.00" from="GowSt_1_1" to="GowSt_1_2"/>
    <trip id="car140" depart="694.00" from="GowSt_1_1" to="HunSt_1_2"/>
    <trip id="car141" depart="696.00" from="GowSt_1_1" to="GorSq_2_3"/>
    <trip id="car142" depart="700.00" from="GorSq_1_1" to="GorSq_1_3"/>
    <trip id="car143" depart="702.00" from="MalSt_2_1" to="GorSq_2_3"/>
    <trip id="car144" depart="703.00" from="GowSt_2_1" to="GorSq_2_3"/>
    <trip id="car145" depart="715.00" from="CheMe_1_1" to="HunSt_1_2"/>
    <trip id="car146" depart="715.00" from="GowSt_2_1" to="HunSt_1_2"/>
    <trip id="car147" depart="716.00" from="HunSt_1_1" to="HunSt_1_2"/>
    <trip id="car148" depart="731.00" from="GowSt_2_1" to="GowSt_2_2"/>
    <trip id="car149" depart="741.00" from="CheMe_1_1" to="HunSt_1_2"/>
    <trip id="car150" depart="745.00" from="MalSt_2_1" to="GorSq_2_3"/>
    <trip id="car151" depart="748.00" from="CheMe_1_1" to="TorPl_2_4"/>
    <trip id="car152" depart="751.00" from="GowSt_1_1" to="HunSt_1_2"/>
    <trip id="car153" depart="763.00" from="GowSt_1_1" to="GowSt_1_2"/>
    <trip id="car154" depart="772.00" from="GowSt_2_1" to="HunSt_1_2"/>
    <trip id="car155" depart="774.00" from="GowSt_1_1" to="TorPl_2_4"/>
    <trip id="car156" depart="782.00" from="GorSq_1_1" to="GorSq_1_3"/>
    <trip id="car157" depart="791.00" from="GowSt_1_1" to="GorSq_2_3"/>
    <trip id="car158" depart="803.00" from="HunSt_1_1" to="HunSt_1_2"/>
    <trip id="car159" depart="808.00" from="GowSt_2_1" to="HunSt_1_2"/>
    <trip id="car160" depart="814.00" from="MalSt_2_1" to="GorSq_2_3"/>
    <trip id="car161" depart="834.00" from="GorSq_1_1" to="GorSq_1_3"/>
    <trip id="car162" depart="839.00" from="GowSt_2_1" to="HunSt_1_2"/>
    <trip id="car163" depart="845.00" from="GowSt_1_1" to="GorSq_1_3"/>
    <trip id="car164" depart="849.00" from="GowSt_1_1" to="GowSt_1_2"/>
    <trip id="car165" depart="858.00" from="CheMe_1_1" to="TorPl_2_4"/>
    <trip id="car166" depart="867.00" from="CheMe_1_1" to="TorPl_2_4"/>
    <trip id="car167" depart="868.00" from="GowSt_2_1" to="GowSt_2_2"/>
    <trip id="car168" depart="868.00" from="GowSt_1_1" to="TorPl_2_4"/>
    <trip id="car169" depart="881.00" from="RidGa_2_1" to="HunSt_1_2"/>
    <trip id="car170" depart="911.00" from="GowSt_1_1" to="HunSt_1_2"/>
    <trip id="car171" depart="916.00" from="GowSt_2_1" to="GorSq_1_3"/>
    <trip id="car172" depart="928.00" from="RidGa_2_1" to="HunSt_1_2"/>
    <trip id="car173" depart="937.00" from="GorSq_1_1" to="GorSq_1_3"/>
    <trip id="car174" depart="939.00" from="GowSt_2_1" to="GorSq_1_3"/>
    <trip id="car175" depart="946.00" from="GowSt_2_1" to="TorPl_2_4"/>
    <trip id="car176" depart="955.00" from="RidGa_2_1" to="TorPl_2_4"/>
    <trip id="car177" depart="960.00" from="MalSt_2_1" to="GorSq_1_3"/>
    <trip id="car178" depart="962.00" from="RidGa_2_1" to="TorPl_2_4"/>
    <trip id="car179" depart="963.00" from="GowSt_2_1" to="GorSq_1_3"/>
    <trip id="car180" depart="965.00" from="CheMe_1_1" to="HunSt_1_2"/>
    <trip id="car181" depart="966.00" from="RidGa_2_1" to="TorPl_2_4"/>
    <trip id="car182" depart="970.00" from="GowSt_2_1" to="GorSq_2_3"/>
    <trip id="car183" depart="971.00" from="GowSt_2_1" to="GorSq_2_3"/>
    <trip id="car184" depart="977.00" from="MalSt_2_1" to="GorSq_1_3"/>
    <trip id="car185" depart="980.00" from="CheMe_1_1" to="TorPl_2_4"/>
    <trip id="car186" depart="983.00" from="GowSt_2_1" to="HunSt_1_2"/>
    <trip id="car187" depart="988.00" from="GowSt_2_1" to="GorSq_2_3"/>
    <trip id="car188" depart="989.00" from="GorSq_1_1" to="GorSq_1_3"/>
    <trip id="car189" depart="990.00" from="MalSt_2_1" to="GorSq_2_3"/>
    <trip id="car190" depart="994.00" from="CheMe_1_1" to="HunSt_1_2"/>
    <trip id="car191" depart="996.00" from="GowSt_2_1" to="GowSt_2_2"/>
    <trip id="car192" depart="1001.00" from="GorSq_1_1" to="GorSq_1_3"/>
    <trip id="car193" depart="1005.00" from="GowSt_1_1" to="GowSt_1_2"/>
    <trip id="car194" depart="1011.00" from="MalSt_2_1" to="GorSq_1_3"/>
    <trip id="car195" depart="1040.00" from="GowSt_2_1" to="GorSq_2_3"/>
    <trip id="car196" depart="1042.00" from="GowSt_1_1" to="HunSt_1_2"/>
    <trip id="car197" depart="1046.00" from="GowSt_2_1" to="GowSt_2_2"/>
    <trip id="car198" depart="1048.00" from="HunSt_1_1" to="TorPl_2_4"/>
    <trip id="car199" depart="1062.00" from="GowSt_2_1" to="HunSt_1_2"/>
    <trip id="car200" depart="1063.00" from="GowSt_2_1" to="GorSq_2_3"/>
    <trip id="car201" depart="1063.00" from="GowSt_1_1" to="GorSq_2_3"/>
    <trip id="car202" depart="1064.00" from="HunSt_1_1" to="HunSt_1_2"/>
    <trip id="car203" depart="1074.00" from="GowSt_1_1" to="GowSt_1_2"/>
    <trip id="car204" depart="1077.00" from="GowSt_1_1" to="TorPl_2_4"/>
    <trip id="car205" depart="1077.00" from="GowSt_1_1" to="TorPl_2_4"/>
    <trip id="car206" depart="1080.00" from="RidGa_2_1" to="TorPl_2_4"/>
    <trip id="car207" depart="1090.00" from="MalSt_2_1" to="GorSq_1_3"/>
    <trip id="car208" depart="1092.00" from="GowSt_1_1" to="GorSq_1_3"/>
    <trip id="car209" depart="1097.00" from="RidGa_2_1" to="HunSt_1_2"/>
    <trip id="car210" depart="1101.00" from="GowSt_2_1" to="GowSt_2_2"/>
    <trip id="car211" depart="1102.00" from="GowSt_1_1" to="HunSt_1_2"/>
    <trip id="car212" depart="1104.00" from="MalSt_2_1" to="GorSq_2_3"/>
    <trip id="car213" depart="1107.00" from="MalSt_2_1" to="GorSq_2_3"/>
    <trip id="car214" depart="1113.00" from="GowSt_2_1" to="GorSq_1_3"/>
    <trip id="car215" depart="1119.00" from="MalSt_2_1" to="GorSq_2_3"/>
    <trip id="car216" depart="1130.00" from="GowSt_1_1" to="TorPl_2_4"/>
    <trip id="car217" depart="1133.00" from="CheMe_1_1" to="HunSt_1_2"/>
    <trip id="car218" depart="1133.00" from="GowSt_2_1" to="TorPl_2_4"/>
    <trip id="car219" depart="1133.00" from="GowSt_1_1" to="TorPl_2_4"/>
    <trip id="car220" depart="1149.00" from="HunSt_1_1" to="HunSt_1_2"/>
    <trip id="car221" depart="1149.00" from="GowSt_2_1" to="GowSt_2_2"/>
    <trip id="car222" depart="1151.00" from="GowSt_1_1" to="GorSq_2_3"/>
    <trip id="car223" depart="1156.00" from="RidGa_2_1" to="TorPl_2_4"/>
    <trip id="car224" depart="1159.00" from="HunSt_1_1" to="HunSt_1_2"/>
    <trip id="car225" depart="1161.00" from="GowSt_1_1" to="GorSq_2_3"/>
    <trip id="car226" depart="1164.00" from="MalSt_2_1" to="GorSq_2_3"/>
    <trip id="car227" depart="1167.00" from="GowSt_1_1" to="GowSt_1_2"/>
    <trip id="car228" depart="1167.00" from="GowSt_1_1" to="GorSq_2_3"/>
    <trip id="car229" depart="1175.00" from="HunSt_1_1" to="TorPl_2_4"/>
    <trip id="car230" depart="1177.00" from="MalSt_2_1" to="GorSq_1_3"/>
    <trip id="car231" depart="1183.00" from="GowSt_2_1" to="HunSt_1_2"/>
    <trip id="car232" depart="1188.00" from="HunSt_1_1" to="TorPl_2_4"/>
    <trip id="car233" depart="1192.00" from="CheMe_1_1" to="TorPl_2_4"/>
    <trip id="car234" depart="1198.00" from="GowSt_2_1" to="GowSt_2_2"/>
    <trip id="car235" depart="1199.00" from="GowSt_1_1" to="GorSq_2_3"/>
    <trip id="car236" depart="1208.00" from="GowSt_2_1" to="HunSt_1_2"/>
    <trip id="car237" depart="1232.00" from="GowSt_2_1" to="GowSt_2_2"/>
    <trip id="car238" depart="1234.00" from="GowSt_1_1" to="TorPl_2_4"/>
    <trip id="car239" depart="1238.00" from="GowSt_1_1" to="GorSq_2_3"/>
    <trip id="car240" depart="1245.00" from="GowSt_1_1" to="GorSq_1_3"/>
    <trip id="car241" depart="1252.00" from="GowSt_1_1" to="TorPl_2_4"/>
    <trip id="car242" depart="1253.00" from="GowSt_1_1" to="GorSq_2_3"/>
    <trip id="car243" depart="1255.00" from="GorSq_1_1" to="GorSq_1_3"/>
    <trip id="car244" depart="1267.00" from="RidGa_2_1" to="HunSt_1_2"/>
    <trip id="car245" depart="1270.00" from="CheMe_1_1" to="HunSt_1_2"/>
    <trip id="car246" depart="1273.00" from="GowSt_1_1" to="GowSt_1_2"/>
    <trip id="car247" depart="1280.00" from="GowSt_1_1" to="GorSq_2_3"/>
    <trip id="car248" depart="1288.00" from="CheMe_1_1" to="TorPl_2_4"/>
    <trip id="car249" depart="1288.00" from="MalSt_2_1" to="GorSq_1_3"/>
    <trip id="car250" depart="1289.00" from="CheMe_1_1" to="TorPl_2_4"/>
    <trip id="car251" depart="1294.00" from="GowSt_1_1" to="HunSt_1_2"/>
    <trip id="car252" depart="1321.00" from="GowSt_2_1" to="HunSt_1_2"/>
    <trip id="car253" depart="1334.00" from="GowSt_2_1" to="GowSt_2_2"/>
    <trip id="car254" depart="1345.00" from="MalSt_2_1" to="GorSq_2_3"/>
    <trip id="car255" depart="1345.00" from="GowSt_2_1" to="HunSt_1_2"/>
    <trip id="car256" depart="1350.00" from="GowSt_1_1" to="GowSt_1_2"/>
    <trip id="car257" depart="1352.00" from="GowSt_2_1" to="GorSq_2_3"/>
    <trip id="car258" depart="1362.00" from="GowSt_2_1" to="GowSt_2_2"/>
    <trip id="car259" depart="1366.00" from="GorSq_1_1" to="GorSq_1_3"/>
    <trip id="car260" depart="1371.00" from="CheMe_1_1" to="HunSt_1_2"/>
    <trip id="car261" depart="1372.00" from="CheMe_1_1" to="TorPl_2_4"/>
    <trip id="car262" depart="1377.00" from="CheMe_1_1" to="HunSt_1_2"/>
    <trip id="car263" depart="1385.00" from="MalSt_2_1" to="GorSq_2_3"/>
    <trip id="car264" depart="1389.00" from="RidGa_2_1" to="TorPl_2_4"/>
    <trip id="car265" depart="1390.00" from="GowSt_1_1" to="TorPl_2_4"/>
    <trip id="car266" depart="1405.00" from="RidGa_2_1" to="TorPl_2_4"/>
    <trip id="car267" depart="1409.00" from="RidGa_2_1" to="TorPl_2_4"/>
    <trip id="car268" depart="1412.00" from="GowSt_2_1" to="HunSt_1_2"/>
    <trip id="car269" depart="1414.00" from="MalSt_2_1" to="GorSq_1_3"/>
    <trip id="car270" depart="1417.00" from="GowSt_2_1" to="GowSt_2_2"/>
    <trip id="car271" depart="1424.00" from="GowSt_1_1" to="TorPl_2_4"/>
    <trip id="car272" depart="1424.00" from="GorSq_1_1" to="GorSq_1_3"/>
    <trip id="car273" depart="1426.00" from="MalSt_2_1" to="GorSq_1_3"/>
    <trip id="car274" depart="1426.00" from="GowSt_2_1" to="GorSq_2_3"/>
    <trip id="car275" depart="1437.00" from="GowSt_2_1" to="HunSt_1_2"/>
    <trip id="car276" depart="1442.00" from="GowSt_2_1" to="TorPl_2_4"/>
    <trip id="car277" depart="1450.00" from="GowSt_1_1" to="GorSq_2_3"/>
    <trip id="car278" depart="1454.00" from="GowSt_2_1" to="HunSt_1_2"/>
    <trip id="car279" depart="1455.00" from="GowSt_1_1" to="GowSt_1_2"/>
    <trip id="car280" depart="1460.00" from="CheMe_1_1" to="TorPl_2_4"/>
    <trip id="car281" depart="1461.00" from="RidGa_2_1" to="HunSt_1_2"/>
    <trip id="car282" depart="1463.00" from="GorSq_1_1" to="GorSq_1_3"/>
    <trip id="car283" depart="1470.00" from="MalSt_2_1" to="GorSq_1_3"/>
    <trip id="car284" depart="1484.00" from="GowSt_1_1" to="HunSt_1_2"/>
    <trip id="car285" depart="1490.00" from="MalSt_2_1" to="GorSq_1_3"/>
    <trip id="car286" depart="1494.00" from="CheMe_1_1" to="TorPl_2_4"/>
    <trip id="car287" depart="1500.00" from="RidGa_2_1" to="HunSt_1_2"/>
    <trip id="car288" depart="1505.00" from="GorSq_1_1" to="GorSq_1_3"/>
    <trip id="car289" depart="1509.00" from="CheMe_1_1" to="TorPl_2_4"/>
    <trip id="car290" depart="1515.00" from="MalSt_2_1" to="GorSq_1_3"/>
    <trip id="car291" depart="1519.00" from="GowSt_2_1" to="GorSq_2_3"/>
    <trip id="car292" depart="1524.00" from="GowSt_1_1" to="GorSq_1_3"/>
    <trip id="car293" depart="1527.00" from="GorSq_1_1" to="GorSq_1_3"/>
    <trip id="car294" depart="1532.00" from="HunSt_1_1" to="HunSt_1_2"/>
    <trip id="car295" depart="1532.00" from="MalSt_2_1" to="GorSq_1_3"/>
    <trip id="car296" depart="1539.00" from="GowSt_2_1" to="GorSq_2_3"/>
    <trip id="car297" depart="1546.00" from="GowSt_1_1" to="HunSt_1_2"/>
    <trip id="car298" depart="1551.00" from="GowSt_2_1" to="GorSq_2_3"/>
    <trip id="car299" depart="1554.00" from="GowSt_2_1" to="GowSt_2_2"/>
    <trip id="car300" depart="1555.00" from="GowSt_2_1" to="GorSq_1_3"/>
    <trip id="car301" depart="1555.00" from="GowSt_1_1" to="GowSt_1_2"/>
    <trip id="car302" depart="1561.00" from="MalSt_2_1" to="GorSq_1_3"/>
    <trip id="car303" depart="1579.00" from="GowSt_1_1" to="HunSt_1_2"/>
    <trip id="car304" depart="1580.00" from="MalSt_2_1" to="GorSq_2_3"/>
    <trip id="car305" depart="1581.00" from="GowSt_2_1" to="GowSt_2_2"/>
    <trip id="car306" depart="1587.00" from="RidGa_2_1" to="TorPl_2_4"/>
    <trip id="car307" depart="1594.00" from="MalSt_2_1" to="GorSq_1_3"/>
    <trip id="car308" depart="1600.00" from="GowSt_1_1" to="TorPl_2_4"/>
    <trip id="car309" depart="1609.00" from="GowSt_2_1" to="HunSt_1_2"/>
    <trip id="car310" depart="1630.00" from="GowSt_2_1" to="GowSt_2_2"/>
    <trip id="car311" depart="1635.00" from="CheMe_1_1" to="HunSt_1_2"/>
    <trip id="car312" depart="1650.00" from="GowSt_2_1" to="GowSt_2_2"/>
    <trip id="car313" depart="1654.00" from="GowSt_1_1" to="HunSt_1_2"/>
    <trip id="car314" depart="1655.00" from="GowSt_2_1" to="HunSt_1_2"/>
    <trip id="car315" depart="1656.00" from="CheMe_1_1" to="HunSt_1_2"/>
    <trip id="car316" depart="1663.00" from="GowSt_2_1" to="GorSq_1_3"/>
    <trip id="car317" depart="1670.00" from="GowSt_1_1" to="TorPl_2_4"/>
    <trip id="car318" depart="1676.00" from="CheMe_1_1" to="TorPl_2_4"/>
    <trip id="car319" depart="1677.00" from="GowSt_2_1" to="HunSt_1_2"/>
    <trip id="car320" depart="1682.00" from="HunSt_1_1" to="HunSt_1_2"/>
    <trip id="car321" depart="1685.00" from="GowSt_1_1" to="HunSt_1_2"/>
    <trip id="car322" depart="1685.00" from="CheMe_1_1" to="TorPl_2_4"/>
    <trip id="car323" depart="1689.00" from="HunSt_1_1" to="TorPl_2_4"/>
    <trip id="car324" depart="1690.00" from="MalSt_2_1" to="GorSq_1_3"/>
    <trip id="car325" depart="1698.00" from="CheMe_1_1" to="TorPl_2_4"/>
    <trip id="car326" depart="1699.00" from="CheMe_1_1" to="HunSt_1_2"/>
    <trip id="car327" depart="1700.00" from="GowSt_2_1" to="GorSq_2_3"/>
    <trip id="car328" depart="1700.00" from="MalSt_2_1" to="GorSq_1_3"/>
    <trip id="car329" depart="1705.00" from="GowSt_2_1" to="HunSt_1_2"/>
    <trip id="car330" depart="1708.00" from="CheMe_1_1" to="TorPl_2_4"/>
    <trip id="car331" depart="1718.00" from="MalSt_2_1" to="GorSq_2_3"/>
    <trip id="car332" depart="1727.00" from="RidGa_2_1" to="TorPl_2_4"/>
    <trip id="car333" depart="1737.00" from="GowSt_1_1" to="GorSq_1_3"/>
    <trip id="car334" depart="1738.00" from="GowSt_1_1" to="GorSq_2_3"/>
    <trip id="car335" depart="1739.00" from="HunSt_1_1" to="TorPl_2_4"/>
    <trip id="car336" depart="1740.00" from="MalSt_2_1" to="GorSq_1_3"/>
    <trip id="car337" depart="1744.00" from="GowSt_2_1" to="GowSt_2_2"/>
    <trip id="car338" depart="1756.00" from="GowSt_1_1" to="GowSt_1_2"/>
    <trip id="car339" depart="1764.00" from="GowSt_2_1" to="GowSt_2_2"/>
    <trip id="car340" depart="1764.00" from="MalSt_2_1" to="GorSq_1_3"/>
    <trip id="car341" depart="1767.00" from="GowSt_2_1" to="HunSt_1_2"/>
    <trip id="car342" depart="1768.00" from="RidGa_2_1" to="TorPl_2_4"/>
    <trip id="car343" depart="1769.00" from="GowSt_1_1" to="GorSq_1_3"/>
    <trip id="car344" depart="1778.00" from="MalSt_2_1" to="GorSq_2_3"/>
    <trip id="car345" depart="1789.00" from="GowSt_1_1" to="GowSt_1_2"/>
    <trip id="car346" depart="1790.00" from="GowSt_2_1" to="GowSt_2_2"/>
    <trip id="car347" depart="1792.00" from="GowSt_1_1" to="HunSt_1_2"/>
    <trip id="car348" depart="1793.00" from="CheMe_1_1" to="TorPl_2_4"/>
    <trip id="car349" depart="1812.00" from="GowSt_1_1" to="GowSt_1_2"/>
    <trip id="car350" depart="1815.00" from="GowSt_1_1" to="GowSt_1_2"/>
    <trip id="car351" depart="1818.00" from="GowSt_1_1" to="GorSq_1_3"/>
    <trip id="car352" depart="1822.00" from="GowSt_1_1" to="GorSq_1_3"/>
    <trip id="car353" depart="1822.00" from="MalSt_2_1" to="GorSq_2_3"/>
    <trip id="car354" depart="1825.00" from="GowSt_2_1" to="GorSq_2_3"/>
    <trip id="car355" depart="1826.00" from="GowSt_1_1" to="GorSq_1_3"/>
    <trip id="car356" depart="1831.00" from="GorSq_1_1" to="GorSq_1_3"/>
    <trip id="car357" depart="1838.00" from="GorSq_1_1" to="GorSq_1_3"/>
    <trip id="car358" depart="1844.00" from="GowSt_1_1" to="GowSt_1_2"/>
    <trip id="car359" depart="1844.00" from="GowSt_2_1" to="GorSq_1_3"/>
    <trip id="car360" depart="1847.00" from="HunSt_1_1" to="TorPl_2_4"/>
    <trip id="car361" depart="1851.00" from="RidGa_2_1" to="TorPl_2_4"/>
    <trip id="car362" depart="1852.00" from="GowSt_2_1" to="GorSq_1_3"/>
    <trip id="car363" depart="1861.00" from="GowSt_2_1" to="GorSq_2_3"/>
    <trip id="car364" depart="1879.00" from="HunSt_1_1" to="TorPl_2_4"/>
    <trip id="car365" depart="1881.00" from="RidGa_2_1" to="TorPl_2_4"/>
    <trip id="car366" depart="1888.00" from="MalSt_2_1" to="GorSq_2_3"/>
    <trip id="car367" depart="1891.00" from="GowSt_2_1" to="GorSq_2_3"/>
    <trip id="car368" depart="1893.00" from="GowSt_1_1" to="GorSq_1_3"/>
    <trip id="car369" depart="1898.00" from="GowSt_1_1" to="GowSt_1_2"/>
    <trip id="car370" depart="1912.00" from="MalSt_2_1" to="GorSq_1_3"/>
    <trip id="car371" depart="1912.00" from="GowSt_1_1" to="TorPl_2_4"/>
    <trip id="car372" depart="1917.00" from="MalSt_2_1" to="GorSq_2_3"/>
    <trip id="car373" depart="1921.00" from="GowSt_2_1" to="TorPl_2_4"/>
    <trip id="car374" depart="1925.00" from="GorSq_1_1" to="GorSq_1_3"/>
    <trip id="car375" depart="1932.00" from="GowSt_2_1" to="GorSq_1_3"/>
    <trip id="car376" depart="1946.00" from="CheMe_1_1" to="HunSt_1_2"/>
    <trip id="car377" depart="1963.00" from="GowSt_1_1" to="GorSq_1_3"/>
    <trip id="car378" depart="1963.00" from="HunSt_1_1" to="HunSt_1_2"/>
    <trip id="car379" depart="1968.00" from="CheMe_1_1" to="TorPl_2_4"/>
    <trip id="car380" depart="1970.00" from="GowSt_2_1" to="HunSt_1_2"/>
    <trip id="car381" depart="1971.00" from="GowSt_1_1" to="GowSt_1_2"/>
    <trip id="car382" depart="1972.00" from="GowSt_1_1" to="GorSq_2_3"/>
    <trip id="car383" depart="1974.00" from="HunSt_1_1" to="HunSt_1_2"/>
    <trip id="car384" depart="1977.00" from="GowSt_1_1" to="TorPl_2_4"/>
    <trip id="car385" depart="1986.00" from="GowSt_2_1" to="HunSt_1_2"/>
    <trip id="car386" depart="1989.00" from="RidGa_2_1" to="TorPl_2_4"/>
    <trip id="car387" depart="1992.00" from="CheMe_1_1" to="TorPl_2_4"/>
    <trip id="car388" depart="1997.00" from="GowSt_1_1" to="HunSt_1_2"/>
    <trip id="car389" depart="2006.00" from="GowSt_1_1" to="GowSt_1_2"/>
    <trip id="car390" depart="2007.00" from="GowSt_1_1" to="TorPl_2_4"/>
    <trip id="car391" depart="2012.00" from="MalSt_2_1" to="GorSq_2_3"/>
    <trip id="car392" depart="2014.00" from="GowSt_2_1" to="GorSq_1_3"/>
    <trip id="car393" depart="2016.00" from="GowSt_1_1" to="GowSt_1_2"/>
    <trip id="car394" depart="2017.00" from="MalSt_2_1" to="GorSq_2_3"/>
    <trip id="car395" depart="2020.00" from="RidGa_2_1" to="TorPl_2_4"/>
    <trip id="car396" depart="2024.00" from="MalSt_2_1" to="GorSq_1_3"/>
    <trip id="car397" depart="2025.00" from="RidGa_2_1" to="TorPl_2_4"/>
    <trip id="car398" depart="2029.00" from="MalSt_2_1" to="GorSq_2_3"/>
    <trip id="car399" depart="2031.00" from="MalSt_2_1" to="GorSq_2_3"/>
    <trip id="car400" depart="2032.00" from="GowSt_1_1" to="GorSq_1_3"/>