<?xml version="1.0" encoding="UTF-8"?>

<!-- generated on 2025-11-24 14:59:39.806227 by Eclipse SUMO randomTrips.py UNKNOWN
<configuration>
    <net-file value="../networks/demo/main.net.xml"/>
    <output-trip-file value="../routes/demo/11/car.trips.xml"/>
    <route-file value="../routes/demo/11/car.rou.xml"/>
    <prefix value="car"/>
    <fringe-factor value="max"/>
    <seed value="11"/>
    <period value="10.0"/>
    <binomial value="100"/>
</configuration>
-->

<!-- generated on 2025-11-24T14:59:39.800597+00:00 by Eclipse SUMO duarouter 1.25.0
<duarouterConfiguration xmlns:xsi="http://www.w3.org/2001/XMLSchema-instance" xsi:noNamespaceSchemaLocation="http://sumo.dlr.de/xsd/duarouterConfiguration.xsd">

    <input>
        <net-file value="../networks/demo/main.net.xml"/>
        <route-files value="../routes/demo/11/car.trips.xml"/>
    </input>

    <output>
        <output-file value="../routes/demo/11/car.rou.xml"/>
        <alternatives-output value="NUL"/>
    </output>

    <time>
        <begin value="0"/>
        <end value="3600.0"/>
    </time>

    <report>
        <no-warnings value="true"/>
        <ignore-errors value="true"/>
        <no-step-log value="true"/>
    </report>

</duarouterConfiguration>
-->

<routes xmlns:xsi="http://www.w3.org/2001/XMLSchema-instance" xsi:noNamespaceSchemaLocation="http://sumo.dlr.de/xsd/routes_file.xsd">
    <vehicle id="car0" depart="6.00">
        <route edges="CheMe_1_1 TorPl_2_3 HunSt_1_2"/>
    </vehicle>
    <vehicle id="car1" depart="18.00">
        <route edges="GorSq_1_1 GorSq_1_2 GorSq_1_3"/>
    </vehicle>
    <vehicle id="car2" depart="24.00">
        <route edges="GowSt_2_1 TorPl_2_2 TorPl_2_3 TorPl_2_4"/>
    </vehicle>
    <vehicle id="car3" depart="29.00">
        <route edges="HunSt_1_1 HunSt_1_2"/>
    </vehicle>
    <vehicle id="car4" depart="41.00">
        <route edges="CheMe_1_1 TorPl_2_3 TorPl_2_4"/>
    </vehicle>
    <vehicle id="car5" depart="46.00">
        <route edges="GorSq_1_1 GorSq_1_2 GorSq_1_3"/>
    </vehicle>
    <vehicle id="car6" depart="48.00">
        <route edges="CheMe_1_1 TorPl_2_3 TorPl_2_4"/>
    </vehicle>
    <vehicle id="car7" depart="52.00">
        <route edges="GorSq_1_1 GorSq_1_2 GorSq_1_3"/>
    </vehicle>
    <vehicle id="car8" depart="53.00">
        <route edges="RidGa_2_1 TorPl_2_3 TorPl_2_4"/>
    </vehicle>
    <vehicle id="car9" depart="69.00">
        <route edges="GowSt_1_1 TorPl_2_2 TorPl_2_3 TorPl_2_4"/>
    </vehicle>
    <vehicle id="car10" depart="69.00">
        <route edges="GorSq_1_1 GorSq_1_2 GorSq_1_3"/>
    </vehicle>
    <vehicle id="car11" depart="82.00">
        <route edges="GowSt_1_1 GowSt_1_2"/>
    </vehicle>
    <vehicle id="car12" depart="83.00">
        <route edges="HunSt_1_1 HunSt_1_2"/>
    </vehicle>
    <vehicle id="car13" depart="86.00">
        <route edges="GowSt_2_1 TorPl_1_4 BynPl_1_1 BynPl_1_2 BynPl_1_3 GorSq_2_3"/>
    </vehicle>
    <vehicle id="car14" depart="93.00">
        <route edges="GowSt_1_1 TorPl_2_2 TorPl_2_3 TorPl_2_4"/>
    </vehicle>
    <vehicle id="car15" depart="110.00">
        <route edges="GowSt_2_1 TorPl_1_4 BynPl_1_1 BynPl_1_2 BynPl_1_3 GorSq_2_3"/>
    </vehicle>
    <vehicle id="car16" depart="113.00">
        <route edges="CheMe_1_1 TorPl_2_3 TorPl_2_4"/>
    </vehicle>
    <vehicle id="car17" depart="137.00">
        <route edges="MalSt_2_1 BynPl_1_1 BynPl_1_2 BynPl_1_3 GorSq_1_2 GorSq_1_3"/>
    </vehicle>
    <vehicle id="car18" depart="148.00">
        <route edges="GowSt_1_1 TorPl_2_2 TorPl_2_3 TorPl_2_4"/>
    </vehicle>
    <vehicle id="car19" depart="190.00">
        <route edges="HunSt_1_1 TorPl_2_4"/>
    </vehicle>
    <vehicle id="car20" depart="202.00">
        <route edges="CheMe_1_1 TorPl_2_3 HunSt_1_2"/>
    </vehicle>
    <vehicle id="car21" depart="203.00">
        <route edges="GowSt_2_1 GowSt_2_2"/>
    </vehicle>
    <vehicle id="car22" depart="210.00">
        <route edges="GowSt_2_1 TorPl_1_4 BynPl_1_1 BynPl_1_2 BynPl_1_3 GorSq_1_2 GorSq_1_3"/>
    </vehicle>
    <vehicle id="car23" depart="211.00">
        <route edges="MalSt_2_1 BynPl_1_1 BynPl_1_2 BynPl_1_3 GorSq_2_3"/>
    </vehicle>
    <vehicle id="car24" depart="211.00">
        <route edges="HunSt_1_1 HunSt_1_2"/>
    </vehicle>
    <vehicle id="car25" depart="247.00">
        <route edges="GowSt_1_1 TorPl_1_4 BynPl_1_1 BynPl_1_2 BynPl_1_3 GorSq_1_2 GorSq_1_3"/>
    </vehicle>
    <vehicle id="car26" depart="248.00">
        <route edges="CheMe_1_1 TorPl_2_3 TorPl_2_4"/>
    </vehicle>
    <vehicle id="car27" depart="266.00">
        <route edges="MalSt_2_1 BynPl_1_1 BynPl_1_2 BynPl_1_3 GorSq_1_2 GorSq_1_3"/>
    </vehicle>
    <vehicle id="car28" depart="268.00">
        <route edges="GowSt_2_1 GowSt_2_2"/>
    </vehicle>
    <vehicle id="car29" depart="274.00">
        <route edges="GowSt_1_1 GowSt_1_2"/>
    </vehicle>
    <vehicle id="car30" depart="281.00">
        <route edges="GowSt_2_1 TorPl_2_2 TorPl_2_3 HunSt_1_2"/>
    </vehicle>
    <vehicle id="car31" depart="281.00">
        <route edges="HunSt_1_1 HunSt_1_2"/>
    </vehicle>
    <vehicle id="car32" depart="282.00">
        <route edges="GowSt_1_1 TorPl_1_4 BynPl_1_1 BynPl_1_2 BynPl_1_3 GorSq_1_2 GorSq_1_3"/>
    </vehicle>
    <vehicle id="car33" depart="286.00">
        <route edges="CheMe_1_1 TorPl_2_3 TorPl_2_4"/>
    </vehicle>
    <vehicle id="car34" depart="288.00">
        <route edges="RidGa_2_1 TorPl_2_3 HunSt_1_2"/>
    </vehicle>
    <vehicle id="car35" depart="290.00">
        <route edges="GowSt_1_1 TorPl_2_2 TorPl_2_3 TorPl_2_4"/>
    </vehicle>
    <vehicle id="car36" depart="310.00">
        <route edges="GowSt_2_1 TorPl_2_2 TorPl_2_3 HunSt_1_2"/>
    </vehicle>
    <vehicle id="car37" depart="328.00">
        <route edges="GowSt_1_1 TorPl_2_2 TorPl_2_3 TorPl_2_4"/>
    </vehicle>
    <vehicle id="car38" depart="339.00">
        <route edges="GowSt_2_1 GowSt_2_2"/>
    </vehicle>
    <vehicle id="car39" depart="341.00">
        <route edges="RidGa_2_1 TorPl_2_3 TorPl_2_4"/>
    </vehicle>
    <vehicle id="car40" depart="347.00">
        <route edges="CheMe_1_1 TorPl_2_3 TorPl_2_4"/>
    </vehicle>
    <vehicle id="car41" depart="355.00">
        <route edges="MalSt_2_1 BynPl_1_1 BynPl_1_2 BynPl_1_3 GorSq_1_2 GorSq_1_3"/>
    </vehicle>
    <vehicle id="car42" depart="356.00">
        <route edges="CheMe_1_1 TorPl_2_3 HunSt_1_2"/>
    </vehicle>
    <vehicle id="car43" depart="395.00">
        <route edges="CheMe_1_1 TorPl_2_3 HunSt_1_2"/>
    </vehicle>
    <vehicle id="car44" depart="399.00">
        <route edges="RidGa_2_1 TorPl_2_3 HunSt_1_2"/>
    </vehicle>
    <vehicle id="car45" depart="406.00">
        <route edges="MalSt_2_1 BynPl_1_1 BynPl_1_2 BynPl_1_3 GorSq_2_3"/>
    </vehicle>
    <vehicle id="car46" depart="426.00">
        <route edges="HunSt_1_1 TorPl_2_4"/>
    </vehicle>
    <vehicle id="car47" depart="438.00">
        <route edges="GowSt_1_1 GowSt_1_2"/>
    </vehicle>
    <vehicle id="car48" depart="451.00">
        <route edges="GowSt_1_1 TorPl_2_2 TorPl_2_3 TorPl_2_4"/>
    </vehicle>
    <vehicle id="car49" depart="460.00">
        <route edges="GowSt_1_1 GowSt_1_2"/>
    </vehicle>
    <vehicle id="car50" depart="468.00">
        <route edges="GowSt_2_1 TorPl_2_2 TorPl_2_3 TorPl_2_4"/>
    </vehicle>
    <vehicle id="car51" depart="470.00">
        <route edges="MalSt_2_1 BynPl_1_1 BynPl_1_2 BynPl_1_3 GorSq_2_3"/>
    </vehicle>
    <vehicle id="car52" depart="472.00">
        <route edges="GorSq_1_1 GorSq_1_2 GorSq_1_3"/>
    </vehicle>
    <vehicle id="car53" depart="497.00">
        <route edges="GowSt_2_1 TorPl_1_4 BynPl_1_1 BynPl_1_2 BynPl_1_3 GorSq_2_3"/>
    </vehicle>
    <vehicle id="car54" depart="499.00">
        <route edges="RidGa_2_1 TorPl_2_3 TorPl_2_4"/>
    </vehicle>
    <vehicle id="car55" depart="506.00">
        <route edges="MalSt_2_1 BynPl_1_1 BynPl_1_2 BynPl_1_3 GorSq_2_3"/>
    </vehicle>
    <vehicle id="car56" depart="531.00">
        <route edges="GowSt_1_1 GowSt_1_2"/>
    </vehicle>
    <vehicle id="car57" depart="535.00">
        <route edges="GorSq_1_1 GorSq_1_2 GorSq_1_3"/>
    </vehicle>
    <vehicle id="car58" depart="536.00">
        <route edges="GowSt_2_1 GowSt_2_2"/>
    </vehicle>
    <vehicle id="car59" depart="551.00">
        <route edges="CheMe_1_1 TorPl_2_3 TorPl_2_4"/>
    </vehicle>
    <vehicle id="car60" depart="562.00">
        <route edges="GowSt_1_1 TorPl_1_4 BynPl_1_1 BynPl_1_2 BynPl_1_3 GorSq_1_2 GorSq_1_3"/>
    </vehicle>
    <vehicle id="car61" depart="565.00">
        <route edges="RidGa_2_1 TorPl_2_3 TorPl_2_4"/>
    </vehicle>
    <vehicle id="car62" depart="566.00">
        <route edges="GowSt_2_1 TorPl_1_4 BynPl_1_1 BynPl_1_2 BynPl_1_3 GorSq_1_2 GorSq_1_3"/>
    </vehicle>
    <vehicle id="car63" depart="601.00">
        <route edges="GowSt_1_1 GowSt_1_2"/>
    </vehicle>
    <vehicle id="car64" depart="607.00">
        <route edges="HunSt_1_1 HunSt_1_2"/>
    </vehicle>
    <vehicle id="car65" depart="615.00">
        <route edges="CheMe_1_1 TorPl_2_3 TorPl_2_4"/>
    </vehicle>
    <vehicle id="car66" depart="616.00">
        <route edges="GorSq_1_1 GorSq_1_2 GorSq_1_3"/>
    </vehicle>
    <vehicle id="car67" depart="620.00">
        <route edges="GowSt_1_1 TorPl_1_4 BynPl_1_1 BynPl_1_2 BynPl_1_3 GorSq_2_3"/>
    </vehicle>
    <vehicle id="car68" depart="625.00">
        <route edges="GowSt_1_1 TorPl_2_2 TorPl_2_3 HunSt_1_2"/>
    </vehicle>
    <vehicle id="car69" depart="637.00">
        <route edges="GowSt_2_1 TorPl_2_2 TorPl_2_3 TorPl_2_4"/>
    </vehicle>
    <vehicle id="car70" depart="644.00">
        <route edges="GowSt_1_1 TorPl_2_2 TorPl_2_3 HunSt_1_2"/>
    </vehicle>
    <vehicle id="car71" depart="651.00">
        <route edges="GorSq_1_1 GorSq_1_2 GorSq_1_3"/>
    </vehicle>
    <vehicle id="car72" depart="676.00">
        <route edges="HunSt_1_1 HunSt_1_2"/>
    </vehicle>
    <vehicle id="car73" depart="683.00">
        <route edges="GowSt_1_1 TorPl_1_4 BynPl_1_1 BynPl_1_2 BynPl_1_3 GorSq_2_3"/>
    </vehicle>
    <vehicle id="car74" depart="718.00">
        <route edges="GowSt_1_1 GowSt_1_2"/>
    </vehicle>
    <vehicle id="car75" depart="727.00">
        <route edges="GowSt_1_1 TorPl_1_4 BynPl_1_1 BynPl_1_2 BynPl_1_3 GorSq_1_2 GorSq_1_3"/>
    </vehicle>
    <vehicle id="car76" depart="733.00">
        <route edges="RidGa_2_1 TorPl_2_3 TorPl_2_4"/>
    </vehicle>
    <vehicle id="car77" depart="738.00">
        <route edges="CheMe_1_1 TorPl_2_3 TorPl_2_4"/>
    </vehicle>
    <vehicle id="car78" depart="748.00">
        <route edges="CheMe_1_1 TorPl_2_3 HunSt_1_2"/>
    </vehicle>
    <vehicle id="car79" depart="765.00">
        <route edges="HunSt_1_1 HunSt_1_2"/>
    </vehicle>
    <vehicle id="car80" depart="770.00">
        <route edges="HunSt_1_1 TorPl_2_4"/>
    </vehicle>
    <vehicle id="car81" depart="777.00">
        <route edges="GowSt_2_1 TorPl_1_4 BynPl_1_1 BynPl_1_2 BynPl_1_3 GorSq_2_3"/>
    </vehicle>
    <vehicle id="car82" depart="780.00">
        <route edges="GowSt_2_1 TorPl_1_4 BynPl_1_1 BynPl_1_2 BynPl_1_3 GorSq_1_2 GorSq_1_3"/>
    </vehicle>
    <vehicle id="car83" depart="793.00">
        <route edges="GowSt_2_1 TorPl_2_2 TorPl_2_3 TorPl_2_4"/>
    </vehicle>
    <vehicle id="car84" depart="807.00">
        <route edges="GowSt_1_1 TorPl_1_4 BynPl_1_1 BynPl_1_2 BynPl_1_3 GorSq_2_3"/>
    </vehicle>
    <vehicle id="car85" depart="811.00">
        <route edges="MalSt_2_1 BynPl_1_1 BynPl_1_2 BynPl_1_3 GorSq_1_2 GorSq_1_3"/>
    </vehicle>
    <vehicle id="car86" depart="818.00">
        <route edges="GowSt_2_1 TorPl_2_2 TorPl_2_3 HunSt_1_2"/>
    </vehicle>
    <vehicle id="car87" depart="819.00">
        <route edges="GowSt_1_1 TorPl_1_4 BynPl_1_1 BynPl_1_2 BynPl_1_3 GorSq_2_3"/>
    </vehicle>
    <vehicle id="car88" depart="835.00">
        <route edges="CheMe_1_1 TorPl_2_3 TorPl_2_4"/>
    </vehicle>
    <vehicle id="car89" depart="835.00">
        <route edges="GowSt_2_1 GowSt_2_2"/>
    </vehicle>
    <vehicle id="car90" depart="848.00">
        <route edges="RidGa_2_1 TorPl_2_3 TorPl_2_4"/>
    </vehicle>
    <vehicle id="car91" depart="849.00">
        <route edges="GowSt_2_1 GowSt_2_2"/>
    </vehicle>
    <vehicle id="car92" depart="849.00">
        <route edges="MalSt_2_1 BynPl_1_1 BynPl_1_2 BynPl_1_3 GorSq_1_2 GorSq_1_3"/>
    </vehicle>
    <vehicle id="car93" depart="893.00">
        <route edges="GowSt_2_1 TorPl_1_4 BynPl_1_1 BynPl_1_2 BynPl_1_3 GorSq_2_3"/>
    </vehicle>
    <vehicle id="car94" depart="927.00">
        <route edges="CheMe_1_1 TorPl_2_3 HunSt_1_2"/>
    </vehicle>
    <vehicle id="car95" depart="931.00">
        <route edges="HunSt_1_1 TorPl_2_4"/>
    </vehicle>
    <vehicle id="car96" depart="936.00">
        <route edges="GowSt_1_1 TorPl_1_4 BynPl_1_1 BynPl_1_2 BynPl_1_3 GorSq_1_2 GorSq_1_3"/>
    </vehicle>
    <vehicle id="car97" depart="952.00">
        <route edges="GowSt_1_1 TorPl_1_4 BynPl_1_1 BynPl_1_2 BynPl_1_3 GorSq_1_2 GorSq_1_3"/>
    </vehicle>
    <vehicle id="car98" depart="955.00">
        <route edges="GowSt_2_1 TorPl_2_2 TorPl_2_3 TorPl_2_4"/>
    </vehicle>
    <vehicle id="car99" depart="958.00">
        <route edges="RidGa_2_1 TorPl_2_3 TorPl_2_4"/>
    </vehicle>
    <vehicle id="car100" depart="982.00">
        <route edges="GowSt_1_1 TorPl_1_4 BynPl_1_1 BynPl_1_2 BynPl_1_3 GorSq_1_2 GorSq_1_3"/>
    </vehicle>
    <vehicle id="car101" depart="984.00">
        <route edges="GowSt_1_1 TorPl_1_4 BynPl_1_1 BynPl_1_2 BynPl_1_3 GorSq_1_2 GorSq_1_3"/>
    </vehicle>
    <vehicle id="car102" depart="985.00">
        <route edges="RidGa_2_1 TorPl_2_3 TorPl_2_4"/>
    </vehicle>
    <vehicle id="car103" depart="988.00">
        <route edges="GorSq_1_1 GorSq_1_2 GorSq_1_3"/>
    </vehicle>
    <vehicle id="car104" depart="990.00">
        <route edges="GorSq_1_1 GorSq_1_2 GorSq_1_3"/>
    </vehicle>
    <vehicle id="car105" depart="1003.00">
        <route edges="MalSt_2_1 BynPl_1_1 BynPl_1_2 BynPl_1_3 GorSq_2_3"/>
    </vehicle>
    <vehicle id="car106" depart="1006.00">
        <route edges="GowSt_2_1 TorPl_2_2 TorPl_2_3 HunSt_1_2"/>
    </vehicle>
    <vehicle id="car107" depart="1016.00">
        <route edges="HunSt_1_1 HunSt_1_2"/>
    </vehicle>
    <vehicle id="car108" depart="1032.00">
        <route edges="CheMe_1_1 TorPl_2_3 TorPl_2_4"/>
    </vehicle>
    <vehicle id="car109" depart="1040.00">
        <route edges="GowSt_2_1 GowSt_2_2"/>
    </vehicle>
    <vehicle id="car110" depart="1040.00">
        <route edges="CheMe_1_1 TorPl_2_3 HunSt_1_2"/>
    </vehicle>
    <vehicle id="car111" depart="1042.00">
        <route edges="GowSt_1_1 GowSt_1_2"/>
    </vehicle>
    <vehicle id="car112" depart="1044.00">
        <route edges="GowSt_2_1 TorPl_2_2 TorPl_2_3 TorPl_2_4"/>
    </vehicle>
    <vehicle id="car113" depart="1064.00">
        <route edges="GowSt_1_1 TorPl_2_2 TorPl_2_3 TorPl_2_4"/>
    </vehicle>
    <vehicle id="car114" depart="1066.00">
        <route edges="GowSt_2_1 GowSt_2_2"/>
    </vehicle>
    <vehicle id="car115" depart="1077.00">
        <route edges="GowSt_2_1 TorPl_2_2 TorPl_2_3 HunSt_1_2"/>
    </vehicle>
    <vehicle id="car116" depart="1081.00">
        <route edges="CheMe_1_1 TorPl_2_3 TorPl_2_4"/>
    </vehicle>
    <vehicle id="car117" depart="1087.00">
        <route edges="GowSt_1_1 TorPl_2_2 TorPl_2_3 HunSt_1_2"/>
    </vehicle>
    <vehicle id="car118" depart="1100.00">
        <route edges="GowSt_1_1 TorPl_1_4 BynPl_1_1 BynPl_1_2 BynPl_1_3 GorSq_1_2 GorSq_1_3"/>
    </vehicle>
    <vehicle id="car119" depart="1123.00">
        <route edges="RidGa_2_1 TorPl_2_3 HunSt_1_2"/>
    </vehicle>
    <vehicle id="car120" depart="1126.00">
        <route edges="CheMe_1_1 TorPl_2_3 TorPl_2_4"/>
    </vehicle>
    <vehicle id="car121" depart="1132.00">
        <route edges="MalSt_2_1 BynPl_1_1 BynPl_1_2 BynPl_1_3 GorSq_2_3"/>
    </vehicle>
    <vehicle id="car122" depart="1139.00">
        <route edges="GowSt_2_1 TorPl_2_2 TorPl_2_3 TorPl_2_4"/>
    </vehicle>
    <vehicle id="car123" depart="1157.00">
        <route edges="HunSt_1_1 TorPl_2_4"/>
    </vehicle>
    <vehicle id="car124" depart="1192.00">
        <route edges="MalSt_2_1 BynPl_1_1 BynPl_1_2 BynPl_1_3 GorSq_2_3"/>
    </vehicle>
    <vehicle id="car125" depart="1202.00">
        <route edges="CheMe_1_1 TorPl_2_3 TorPl_2_4"/>
    </vehicle>
    <vehicle id="car126" depart="1214.00">
        <route edges="GowSt_2_1 GowSt_2_2"/>
    </vehicle>
    <vehicle id="car127" depart="1216.00">
        <route edges="MalSt_2_1 BynPl_1_1 BynPl_1_2 BynPl_1_3 GorSq_2_3"/>
    </vehicle>
    <vehicle id="car128" depart="1222.00">
        <route edges="RidGa_2_1 TorPl_2_3 HunSt_1_2"/>
    </vehicle>
    <vehicle id="car129" depart="1222.00">
        <route edges="GowSt_1_1 TorPl_1_4 BynPl_1_1 BynPl_1_2 BynPl_1_3 GorSq_2_3"/>
    </vehicle>
    <vehicle id="car130" depart="1229.00">
        <route edges="RidGa_2_1 TorPl_2_3 TorPl_2_4"/>
    </vehicle>
    <vehicle id="car131" depart="1233.00">
        <route edges="MalSt_2_1 BynPl_1_1 BynPl_1_2 BynPl_1_3 GorSq_1_2 GorSq_1_3"/>
    </vehicle>
    <vehicle id="car132" depart="1246.00">
        <route edges="GowSt_2_1 TorPl_1_4 BynPl_1_1 BynPl_1_2 BynPl_1_3 GorSq_1_2 GorSq_1_3"/>
    </vehicle>
    <vehicle id="car133" depart="1249.00">
        <route edges="CheMe_1_1 TorPl_2_3 TorPl_2_4"/>
    </vehicle>
    <vehicle id="car134" depart="1264.00">
        <route edges="MalSt_2_1 BynPl_1_1 BynPl_1_2 BynPl_1_3 GorSq_2_3"/>
    </vehicle>
    <vehicle id="car135" depart="1264.00">
        <route edges="GowSt_2_1 TorPl_1_4 BynPl_1_1 BynPl_1_2 BynPl_1_3 GorSq_2_3"/>
    </vehicle>
    <vehicle id="car136" depart="1284.00">
        <route edges="GowSt_1_1 TorPl_1_4 BynPl_1_1 BynPl_1_2 BynPl_1_3 GorSq_2_3"/>
    </vehicle>
    <vehicle id="car137" depart="1292.00">
        <route edges="GowSt_2_1 TorPl_1_4 BynPl_1_1 BynPl_1_2 BynPl_1_3 GorSq_2_3"/>
    </vehicle>
    <vehicle id="car138" depart="1293.00">
        <route edges="GowSt_1_1 TorPl_1_4 BynPl_1_1 BynPl_1_2 BynPl_1_3 GorSq_2_3"/>
    </vehicle>
    <vehicle id="car139" depart="1298.00">
        <route edges="HunSt_1_1 TorPl_2_4"/>
    </vehicle>
    <vehicle id="car140" depart="1303.00">
        <route edges="GowSt_1_1 TorPl_2_2 TorPl_2_3 TorPl_2_4"/>
    </vehicle>
    <vehicle id="car141" depart="1318.00">
        <route edges="GowSt_1_1 TorPl_2_2 TorPl_2_3 HunSt_1_2"/>
    </vehicle>
    <vehicle id="car142" depart="1379.00">
        <route edges="GowSt_2_1 TorPl_2_2 TorPl_2_3 HunSt_1_2"/>
    </vehicle>
    <vehicle id="car143" depart="1394.00">
        <route edges="GowSt_1_1 TorPl_1_4 BynPl_1_1 BynPl_1_2 BynPl_1_3 GorSq_2_3"/>
    </vehicle>
    <vehicle id="car144" depart="1407.00">
        <route edges="GowSt_2_1 TorPl_1_4 BynPl_1_1 BynPl_1_2 BynPl_1_3 GorSq_2_3"/>
    </vehicle>
    <vehicle id="car145" depart="1438.00">
        <route edges="GowSt_1_1 TorPl_2_2 TorPl_2_3 HunSt_1_2"/>
    </vehicle>
    <vehicle id="car146" depart="1440.00">
        <route edges="GowSt_1_1 TorPl_1_4 BynPl_1_1 BynPl_1_2 BynPl_1_3 GorSq_1_2 GorSq_1_3"/>
    </vehicle>
    <vehicle id="car147" depart="1443.00">
        <route edges="GorSq_1_1 GorSq_1_2 GorSq_1_3"/>
    </vehicle>
    <vehicle id="car148" depart="1446.00">
        <route edges="GowSt_2_1 GowSt_2_2"/>
    </vehicle>
    <vehicle id="car149" depart="1455.00">
        <route edges="CheMe_1_1 TorPl_2_3 HunSt_1_2"/>
    </vehicle>
    <vehicle id="car150" depart="1462.00">
        <route edges="RidGa_2_1 TorPl_2_3 TorPl_2_4"/>
    </vehicle>
    <vehicle id="car151" depart="1466.00">
        <route edges="MalSt_2_1 BynPl_1_1 BynPl_1_2 BynPl_1_3 GorSq_1_2 GorSq_1_3"/>
    </vehicle>
    <vehicle id="car152" depart="1472.00">
        <route edges="CheMe_1_1 TorPl_2_3 TorPl_2_4"/>
    </vehicle>
    <vehicle id="car153" depart="1475.00">
        <route edges="HunSt_1_1 TorPl_2_4"/>
    </vehicle>
    <vehicle id="car154" depart="1494.00">
        <route edges="GowSt_2_1 TorPl_1_4 BynPl_1_1 BynPl_1_2 BynPl_1_3 GorSq_2_3"/>
    </vehicle>
    <vehicle id="car155" depart="1506.00">
        <route edges="GowSt_2_1 TorPl_1_4 BynPl_1_1 BynPl_1_2 BynPl_1_3 GorSq_1_2 GorSq_1_3"/>
    </vehicle>
    <vehicle id="car156" depart="1519.00">
        <route edges="GowSt_1_1 TorPl_1_4 BynPl_1_1 BynPl_1_2 BynPl_1_3 GorSq_2_3"/>
    </vehicle>
    <vehicle id="car157" depart="1529.00">
        <route edges="GowSt_2_1 TorPl_2_2 TorPl_2_3 HunSt_1_2"/>
    </vehicle>
    <vehicle id="car158" depart="1567.00">
        <route edges="CheMe_1_1 TorPl_2_3 TorPl_2_4"/>
    </vehicle>
    <vehicle id="car159" depart="1574.00">
        <route edges="CheMe_1_1 TorPl_2_3 HunSt_1_2"/>
    </vehicle>
    <vehicle id="car160" depart="1574.00">
        <route edges="GowSt_2_1 TorPl_1_4 BynPl_1_1 BynPl_1_2 BynPl_1_3 GorSq_2_3"/>
    </vehicle>
    <vehicle id="car161" depart="1577.00">
        <route edges="GowSt_2_1 GowSt_2_2"/>
    </vehicle>
    <vehicle id="car162" depart="1612.00">
        <route edges="GowSt_2_1 TorPl_1_4 BynPl_1_1 BynPl_1_2 BynPl_1_3 GorSq_2_3"/>
    </vehicle>
    <vehicle id="car163" depart="1616.00">
        <route edges="CheMe_1_1 TorPl_2_3 HunSt_1_2"/>
    </vehicle>
    <vehicle id="car164" depart="1630.00">
        <route edges="CheMe_1_1 TorPl_2_3 HunSt_1_2"/>
    </vehicle>
    <vehicle id="car165" depart="1646.00">
        <route edges="HunSt_1_1 TorPl_2_4"/>
    </vehicle>
    <vehicle id="car166" depart="1665.00">
        <route edges="RidGa_2_1 TorPl_2_3 HunSt_1_2"/>
    </vehicle>
    <vehicle id="car167" depart="1682.00">
        <route edges="GowSt_1_1 TorPl_2_2 TorPl_2_3 TorPl_2_4"/>
    </vehicle>
    <vehicle id="car168" depart="1689.00">
        <route edges="MalSt_2_1 BynPl_1_1 BynPl_1_2 BynPl_1_3 GorSq_1_2 GorSq_1_3"/>
    </vehicle>
    <vehicle id="car169" depart="1691.00">
        <route edges="GowSt_2_1 TorPl_2_2 TorPl_2_3 TorPl_2_4"/>
    </vehicle>
    <vehicle id="car170" depart="1702.00">
        <route edges="GorSq_1_1 GorSq_1_2 GorSq_1_3"/>
    </vehicle>
    <vehicle id="car171" depart="1736.00">
        <route edges="GowSt_1_1 TorPl_1_4 BynPl_1_1 BynPl_1_2 BynPl_1_3 GorSq_2_3"/>
    </vehicle>
    <vehicle id="car172" depart="1746.00">
        <route edges="GowSt_1_1 TorPl_1_4 BynPl_1_1 BynPl_1_2 BynPl_1_3 GorSq_1_2 GorSq_1_3"/>
    </vehicle>
    <vehicle id="car173" depart="1760.00">
        <route edges="GowSt_1_1 TorPl_1_4 BynPl_1_1 BynPl_1_2 BynPl_1_3 GorSq_2_3"/>
    </vehicle>
    <vehicle id="car174" depart="1770.00">
        <route edges="CheMe_1_1 TorPl_2_3 TorPl_2_4"/>
    </vehicle>
    <vehicle id="car175" depart="1777.00">
        <route edges="GowSt_2_1 TorPl_1_4 BynPl_1_1 BynPl_1_2 BynPl_1_3 GorSq_1_2 GorSq_1_3"/>
    </vehicle>
    <vehicle id="car176" depart="1788.00">
        <route edges="GowSt_2_1 TorPl_2_2 TorPl_2_3 TorPl_2_4"/>
    </vehicle>
    <vehicle id="car177" depart="1795.00">
        <route edges="GowSt_2_1 TorPl_2_2 TorPl_2_3 HunSt_1_2"/>
    </vehicle>
    <vehicle id="car178" depart="1813.00">
        <route edges="RidGa_2_1 TorPl_2_3 HunSt_1_2"/>
    </vehicle>
    <vehicle id="car179" depart="1824.00">
        <route edges="HunSt_1_1 HunSt_1_2"/>
    </vehicle>
    <vehicle id="car180" depart="1832.00">
        <route edges="GowSt_2_1 TorPl_2_2 TorPl_2_3 TorPl_2_4"/>
    </vehicle>
    <vehicle id="car181" depart="1835.00">
        <route edges="GowSt_1_1 GowSt_1_2"/>
    </vehicle>
    <vehicle id="car182" depart="1840.00">
        <route edges="RidGa_2_1 TorPl_2_3 TorPl_2_4"/>
    </vehicle>
    <vehicle id="car183" depart="1853.00">
        <route edges="RidGa_2_1 TorPl_2_3 TorPl_2_4"/>
    </vehicle>
    <vehicle id="car184" depart="1862.00">
        <route edges="GowSt_2_1 TorPl_1_4 BynPl_1_1 BynPl_1_2 BynPl_1_3 GorSq_1_2 GorSq_1_3"/>
    </vehicle>
    <vehicle id="car185" depart="1862.00">
        <route edges="CheMe_1_1 TorPl_2_3 TorPl_2_4"/>
    </vehicle>
    <vehicle id="car186" depart="1863.00">
        <route edges="GowSt_2_1 TorPl_1_4 BynPl_1_1 BynPl_1_2 BynPl_1_3 GorSq_2_3"/>
    </vehicle>
    <vehicle id="car187" depart="1863.00">
        <route edges="GorSq_1_1 GorSq_1_2 GorSq_1_3"/>
    </vehicle>
    <vehicle id="car188" depart="1869.00">
        <route edges="CheMe_1_1 TorPl_2_3 TorPl_2_4"/>
    </vehicle>
    <vehicle id="car189" depart="1887.00">
        <route edges="GowSt_1_1 TorPl_2_2 TorPl_2_3 HunSt_1_2"/>
    </vehicle>
    <vehicle id="car190" depart="1891.00">
        <route edges="MalSt_2_1 BynPl_1_1 BynPl_1_2 BynPl_1_3 GorSq_2_3"/>
    </vehicle>
    <vehicle id="car191" depart="1906.00">
        <route edges="GowSt_1_1 TorPl_2_2 TorPl_2_3 TorPl_2_4"/>
    </vehicle>
    <vehicle id="car192" depart="1919.00">
        <route edges="HunSt_1_1 HunSt_1_2"/>
    </vehicle>
    <vehicle id="car193" depart="1927.00">
        <route edges="CheMe_1_1 TorPl_2_3 HunSt_1_2"/>
    </vehicle>
    <vehicle id="car194" depart="1936.00">
        <route edges="GowSt_1_1 GowSt_1_2"/>
    </vehicle>
    <vehicle id="car195" depart="1962.00">
        <route edges="GowSt_2_1 TorPl_2_2 TorPl_2_3 TorPl_2_4"/>
    </vehicle>
    <vehicle id="car196" depart="1977.00">
        <route edges="HunSt_1_1 TorPl_2_4"/>
    </vehicle>
    <vehicle id="car197" depart="1981.00">
        <route edges="GowSt_2_1 TorPl_1_4 BynPl_1_1 BynPl_1_2 BynPl_1_3 GorSq_2_3"/>
    </vehicle>
    <vehicle id="car198" depart="1982.00">
        <route edges="CheMe_1_1 TorPl_2_3 HunSt_1_2"/>
    </vehicle>
    <vehicle id="car199" depart="1999.00">
        <route edges="GowSt_1_1 TorPl_2_2 TorPl_2_3 HunSt_1_2"/>
    </vehicle>
    <vehicle id="car200" depart="2006.00">
        <route edges="GorSq_1_1 GorSq_1_2 GorSq_1_3"/>
    </vehicle>
    <vehicle id="car201" depart="2028.00">
        <route edges="GorSq_1_1 GorSq_1_2 GorSq_1_3"/>
    </vehicle>
    <vehicle id="car202" depart="2030.00">
        <route edges="GorSq_1_1 GorSq_1_2 GorSq_1_3"/>
    </vehicle>
    <vehicle id="car203" depart="2061.00">
        <route edges="CheMe_1_1 TorPl_2_3 HunSt_1_2"/>
    </vehicle>
    <vehicle id="car204" depart="2088.00">
        <route edges="RidGa_2_1 TorPl_2_3 TorPl_2_4"/>
    </vehicle>
    <vehicle id="car205" depart="2091.00">
        <route edges="RidGa_2_1 TorPl_2_3 HunSt_1_2"/>
    </vehicle>
    <vehicle id="car206" depart="2105.00">
        <route edges="RidGa_2_1 TorPl_2_3 HunSt_1_2"/>
    </vehicle>
    <vehicle id="car207" depart="2133.00">
        <route edges="HunSt_1_1 HunSt_1_2"/>
    </vehicle>
    <vehicle id="car208" depart="2154.00">
        <route edges="GowSt_2_1 TorPl_1_4 BynPl_1_1 BynPl_1_2 BynPl_1_3 GorSq_2_3"/>
    </vehicle>
    <vehicle id="car209" depart="2160.00">
        <route edges="MalSt_2_1 BynPl_1_1 BynPl_1_2 BynPl_1_3 GorSq_1_2 GorSq_1_3"/>
    </vehicle>
    <vehicle id="car210" depart="2166.00">
        <route edges="GowSt_2_1 TorPl_1_4 BynPl_1_1 BynPl_1_2 BynPl_1_3 GorSq_1_2 GorSq_1_3"/>
    </vehicle>
    <vehicle id="car211" depart="2190.00">
        <route edges="CheMe_1_1 TorPl_2_3 HunSt_1_2"/>
    </vehicle>
    <vehicle id="car212" depart="2192.00">
        <route edges="MalSt_2_1 BynPl_1_1 BynPl_1_2 BynPl_1_3 GorSq_2_3"/>
    </vehicle>
    <vehicle id="car213" depart="2193.00">
        <route edges="MalSt_2_1 BynPl_1_1 BynPl_1_2 BynPl_1_3 GorSq_2_3"/>
    </vehicle>
    <vehicle id="car214" depart="2203.00">
        <route edges="GowSt_2_1 TorPl_2_2 TorPl_2_3 TorPl_2_4"/>
    </vehicle>
    <vehicle id="car215" depart="2206.00">
        <route edges="GowSt_1_1 GowSt_1_2"/>
    </vehicle>
    <vehicle id="car216" depart="2233.00">
        <route edges="MalSt_2_1 BynPl_1_1 BynPl_1_2 BynPl_1_3 GorSq_1_2 GorSq_1_3"/>
    </vehicle>
    <vehicle id="car217" depart="2233.00">
        <route edges="CheMe_1_1 TorPl_2_3 TorPl_2_4"/>
    </vehicle>
    <vehicle id="car218" depart="2235.00">
        <route edges="GowSt_1_1 TorPl_2_2 TorPl_2_3 TorPl_2_4"/>
    </vehicle>
    <vehicle id="car219" depart="2251.00">
        <route edges="GowSt_1_1 TorPl_1_4 BynPl_1_1 BynPl_1_2 BynPl_1_3 GorSq_2_3"/>
    </vehicle>
    <vehicle id="car220" depart="2259.00">
        <route edges="MalSt_2_1 BynPl_1_1 BynPl_1_2 BynPl_1_3 GorSq_1_2 GorSq_1_3"/>
    </vehicle>
    <vehicle id="car221" depart="2259.00">
        <route edges="RidGa_2_1 TorPl_2_3 HunSt_1_2"/>
    </vehicle>
    <vehicle id="car222" depart="2267.00">
        <route edges="GowSt_2_1 GowSt_2_2"/>
    </vehicle>
    <vehicle id="car223" depart="2270.00">
        <route edges="RidGa_2_1 TorPl_2_3 TorPl_2_4"/>
    </vehicle>
    <vehicle id="car224" depart="2274.00">
        <route edges="GowSt_2_1 TorPl_1_4 BynPl_1_1 BynPl_1_2 BynPl_1_3 GorSq_1_2 GorSq_1_3"/>
    </vehicle>
    <vehicle id="car225" depart="2280.00">
        <route edges="GowSt_2_1 TorPl_1_4 BynPl_1_1 BynPl_1_2 BynPl_1_3 GorSq_2_3"/>
    </vehicle>
    <vehicle id="car226" depart="2296.00">
        <route edges="GowSt_2_1 TorPl_2_2 TorPl_2_3 HunSt_1_2"/>
    </vehicle>
    <vehicle id="car227" depart="2309.00">
        <route edges="MalSt_2_1 BynPl_1_1 BynPl_1_2 BynPl_1_3 GorSq_1_2 GorSq_1_3"/>
    </vehicle>
    <vehicle id="car228" depart="2320.00">
        <route edges="HunSt_1_1 HunSt_1_2"/>
    </vehicle>
    <vehicle id="car229" depart="2329.00">
        <route edges="GowSt_1_1 TorPl_2_2 TorPl_2_3 TorPl_2_4"/>
    </vehicle>
    <vehicle id="car230" depart="2333.00">
        <route edges="MalSt_2_1 BynPl_1_1 BynPl_1_2 BynPl_1_3 GorSq_2_3"/>
    </vehicle>
    <vehicle id="car231" depart="2343.00">
        <route edges="CheMe_1_1 TorPl_2_3 HunSt_1_2"/>
    </vehicle>
    <vehicle id="car232" depart="2349.00">
        <route edges="GowSt_2_1 TorPl_1_4 BynPl_1_1 BynPl_1_2 BynPl_1_3 GorSq_1_2 GorSq_1_3"/>
    </vehicle>
    <vehicle id="car233" depart="2351.00">
        <route edges="GowSt_2_1 TorPl_1_4 BynPl_1_1 BynPl_1_2 BynPl_1_3 GorSq_1_2 GorSq_1_3"/>
    </vehicle>
    <vehicle id="car234" depart="2354.00">
        <route edges="GowSt_1_1 GowSt_1_2"/>
    </vehicle>