<?xml version="1.0" encoding="UTF-8"?>

<!-- generated on 2025-12-25 18:34:53.969537 by Eclipse SUMO randomTrips.py UNKNOWN
<configuration>
    <net-file value="../networks/demo/main.net.xml"/>
    <output-trip-file value="../routes/demo/eval/50/car.trips.xml"/>
    <route-file value="../routes/demo/eval/50/car.rou.xml"/>
    <prefix value="car"/>
    <fringe-factor value="max"/>
    <seed value="50"/>
    <period value="15.0"/>
    <binomial value="100"/>
</configuration>
-->

<!-- generated on 2025-12-25T18:34:53.964986+00:00 by Eclipse SUMO duarouter 1.25.0
<duarouterConfiguration xmlns:xsi="http://www.w3.org/2001/XMLSchema-instance" xsi:noNamespaceSchemaLocation="http://sumo.dlr.de/xsd/duarouterConfiguration.xsd">

    <input>
        <net-file value="../networks/demo/main.net.xml"/>
        <route-files value="../routes/demo/eval/50/car.trips.xml"/>
    </input>

    <output>
        <output-file value="../routes/demo/eval/50/car.rou.xml"/>
        <alternatives-output value="NUL"/>
    </output>

    <time>
        <begin value="0"/>
        <end value="3600.0"/>
    </time>

    <report>
        <no-warnings value="true"/>
        <ignore-errors value="true"/>
        <no-step-log value="true"/>
    </report>

</duarouterConfiguration>
-->

<routes xmlns:xsi="http://www.w3.org/2001/XMLSchema-instance" xsi:noNamespaceSchemaLocation="http://sumo.dlr.de/xsd/routes_file.xsd">
    <vehicle id="car0" depart="2.00">
        <route edges="RidGa_2_1 TorPl_2_3 HunSt_1_2"/>
    </vehicle>
    <vehicle id="car1" depart="8.00">
        <route edges="HunSt_1_1 HunSt_1_2"/>
    </vehicle>
    <vehicle id="car2" depart="60.00">
        <route edges="GowSt_2_1 TorPl_1_4 BynPl_1_1 BynPl_1_2 BynPl_1_3 GorSq_1_2 GorSq_1_3"/>
    </vehicle>
    <vehicle id="car3" depart="60.00">
        <route edges="HunSt_1_1 HunSt_1_2"/>
    </vehicle>
    <vehicle id="car4" depart="68.00">
        <route edges="GowSt_1_1 TorPl_2_2 TorPl_2_3 HunSt_1_2"/>
    </vehicle>
    <vehicle id="car5" depart="94.00">
        <route edges="GowSt_2_1 TorPl_2_2 TorPl_2_3 TorPl_2_4"/>
    </vehicle>
    <vehicle id="car6" depart="104.00">
        <route edges="GowSt_2_1 TorPl_1_4 BynPl_1_1 BynPl_1_2 BynPl_1_3 GorSq_1_2 GorSq_1_3"/>
    </vehicle>
    <vehicle id="car7" depart="104.00">
        <route edges="GowSt_2_1 TorPl_2_2 TorPl_2_3 HunSt_1_2"/>
    </vehicle>
    <vehicle id="car8" depart="123.00">
        <route edges="GowSt_2_1 TorPl_2_2 TorPl_2_3 TorPl_2_4"/>
    </vehicle>
    <vehicle id="car9" depart="128.00">
        <route edges="HunSt_1_1 TorPl_2_4"/>
    </vehicle>
    <vehicle id="car10" depart="154.00">
        <route edges="HunSt_1_1 HunSt_1_2"/>
    </vehicle>
    <vehicle id="car11" depart="167.00">
        <route edges="GowSt_1_1 TorPl_1_4 BynPl_1_1 BynPl_1_2 BynPl_1_3 GorSq_2_3"/>
    </vehicle>
    <vehicle id="car12" depart="197.00">
        <route edges="RidGa_2_1 TorPl_2_3 TorPl_2_4"/>
    </vehicle>
    <vehicle id="car13" depart="215.00">
        <route edges="GowSt_2_1 TorPl_1_4 BynPl_1_1 BynPl_1_2 BynPl_1_3 GorSq_1_2 GorSq_1_3"/>
    </vehicle>
    <vehicle id="car14" depart="218.00">
        <route edges="GowSt_2_1 GowSt_2_2"/>
    </vehicle>
    <vehicle id="car15" depart="228.00">
        <route edges="GowSt_2_1 GowSt_2_2"/>
    </vehicle>
    <vehicle id="car16" depart="228.00">
        <route edges="GowSt_2_1 TorPl_2_2 TorPl_2_3 HunSt_1_2"/>
    </vehicle>
    <vehicle id="car17" depart="233.00">
        <route edges="GowSt_2_1 GowSt_2_2"/>
    </vehicle>
    <vehicle id="car18" depart="237.00">
        <route edges="HunSt_1_1 TorPl_2_4"/>
    </vehicle>
    <vehicle id="car19" depart="244.00">
        <route edges="RidGa_2_1 TorPl_2_3 TorPl_2_4"/>
    </vehicle>
    <vehicle id="car20" depart="299.00">
        <route edges="MalSt_2_1 BynPl_1_1 BynPl_1_2 BynPl_1_3 GorSq_2_3"/>
    </vehicle>
    <vehicle id="car21" depart="307.00">
        <route edges="GowSt_1_1 TorPl_1_4 BynPl_1_1 BynPl_1_2 BynPl_1_3 GorSq_1_2 GorSq_1_3"/>
    </vehicle>
    <vehicle id="car22" depart="322.00">
        <route edges="GowSt_1_1 TorPl_2_2 TorPl_2_3 TorPl_2_4"/>
    </vehicle>
    <vehicle id="car23" depart="357.00">
        <route edges="GowSt_2_1 TorPl_1_4 BynPl_1_1 BynPl_1_2 BynPl_1_3 GorSq_1_2 GorSq_1_3"/>
    </vehicle>
    <vehicle id="car24" depart="372.00">
        <route edges="CheMe_1_1 TorPl_2_3 TorPl_2_4"/>
    </vehicle>
    <vehicle id="car25" depart="374.00">
        <route edges="RidGa_2_1 TorPl_2_3 TorPl_2_4"/>
    </vehicle>
    <vehicle id="car26" depart="378.00">
        <route edges="GowSt_2_1 GowSt_2_2"/>
    </vehicle>
    <vehicle id="car27" depart="408.00">
        <route edges="GowSt_1_1 TorPl_1_4 BynPl_1_1 BynPl_1_2 BynPl_1_3 GorSq_1_2 GorSq_1_3"/>
    </vehicle>
    <vehicle id="car28" depart="408.00">
        <route edges="GowSt_2_1 GowSt_2_2"/>
    </vehicle>
    <vehicle id="car29" depart="438.00">
        <route edges="CheMe_1_1 TorPl_2_3 HunSt_1_2"/>
    </vehicle>
    <vehicle id="car30" depart="456.00">
        <route edges="GowSt_2_1 TorPl_2_2 TorPl_2_3 HunSt_1_2"/>
    </vehicle>
    <vehicle id="car31" depart="509.00">
        <route edges="GorSq_1_1 GorSq_1_2 GorSq_1_3"/>
    </vehicle>
    <vehicle id="car32" depart="511.00">
        <route edges="GowSt_2_1 TorPl_2_2 TorPl_2_3 TorPl_2_4"/>
    </vehicle>
    <vehicle id="car33" depart="525.00">
        <route edges="RidGa_2_1 TorPl_2_3 HunSt_1_2"/>
    </vehicle>
    <vehicle id="car34" depart="530.00">
        <route edges="GowSt_1_1 TorPl_2_2 TorPl_2_3 HunSt_1_2"/>
    </vehicle>
    <vehicle id="car35" depart="550.00">
        <route edges="HunSt_1_1 TorPl_2_4"/>
    </vehicle>
    <vehicle id="car36" depart="555.00">
        <route edges="HunSt_1_1 TorPl_2_4"/>
    </vehicle>
    <vehicle id="car37" depart="556.00">
        <route edges="CheMe_1_1 TorPl_2_3 TorPl_2_4"/>
    </vehicle>
    <vehicle id="car38" depart="573.00">
        <route edges="RidGa_2_1 TorPl_2_3 TorPl_2_4"/>
    </vehicle>
    <vehicle id="car39" depart="583.00">
        <route edges="CheMe_1_1 TorPl_2_3 HunSt_1_2"/>
    </vehicle>
    <vehicle id="car40" depart="600.00">
        <route edges="CheMe_1_1 TorPl_2_3 HunSt_1_2"/>
    </vehicle>
    <vehicle id="car41" depart="618.00">
        <route edges="MalSt_2_1 BynPl_1_1 BynPl_1_2 BynPl_1_3 GorSq_2_3"/>
    </vehicle>
    <vehicle id="car42" depart="620.00">
        <route edges="GowSt_1_1 TorPl_1_4 BynPl_1_1 BynPl_1_2 BynPl_1_3 GorSq_1_2 GorSq_1_3"/>
    </vehicle>
    <vehicle id="car43" depart="661.00">
        <route edges="CheMe_1_1 TorPl_2_3 HunSt_1_2"/>
    </vehicle>
    <vehicle id="car44" depart="674.00">
        <route edges="GowSt_1_1 TorPl_1_4 BynPl_1_1 BynPl_1_2 BynPl_1_3 GorSq_2_3"/>
    </vehicle>
    <vehicle id="car45" depart="682.00">
        <route edges="MalSt_2_1 BynPl_1_1 BynPl_1_2 BynPl_1_3 GorSq_2_3"/>
    </vehicle>
    <vehicle id="car46" depart="730.00">
        <route edges="GowSt_2_1 TorPl_2_2 TorPl_2_3 TorPl_2_4"/>
    </vehicle>
    <vehicle id="car47" depart="733.00">
        <route edges="GorSq_1_1 GorSq_1_2 GorSq_1_3"/>
    </vehicle>
    <vehicle id="car48" depart="747.00">
        <route edges="GowSt_2_1 TorPl_1_4 BynPl_1_1 BynPl_1_2 BynPl_1_3 GorSq_1_2 GorSq_1_3"/>
    </vehicle>
    <vehicle id="car49" depart="753.00">
        <route edges="GowSt_1_1 TorPl_2_2 TorPl_2_3 HunSt_1_2"/>
    </vehicle>
    <vehicle id="car50" depart="788.00">
        <route edges="GowSt_2_1 TorPl_2_2 TorPl_2_3 TorPl_2_4"/>
    </vehicle>
    <vehicle id="car51" depart="855.00">
        <route edges="RidGa_2_1 TorPl_2_3 HunSt_1_2"/>
    </vehicle>
    <vehicle id="car52" depart="866.00">
        <route edges="RidGa_2_1 TorPl_2_3 TorPl_2_4"/>
    </vehicle>
    <vehicle id="car53" depart="913.00">
        <route edges="GowSt_1_1 TorPl_2_2 TorPl_2_3 TorPl_2_4"/>
    </vehicle>
    <vehicle id="car54" depart="963.00">
        <route edges="GowSt_1_1 TorPl_1_4 BynPl_1_1 BynPl_1_2 BynPl_1_3 GorSq_2_3"/>
    </vehicle>
    <vehicle id="car55" depart="985.00">
        <route edges="GowSt_1_1 TorPl_1_4 BynPl_1_1 BynPl_1_2 BynPl_1_3 GorSq_2_3"/>
    </vehicle>
    <vehicle id="car56" depart="1039.00">
        <route edges="CheMe_1_1 TorPl_2_3 HunSt_1_2"/>
    </vehicle>
    <vehicle id="car57" depart="1087.00">
        <route edges="GowSt_2_1 TorPl_2_2 TorPl_2_3 HunSt_1_2"/>
    </vehicle>
    <vehicle id="car58" depart="1092.00">
        <route edges="CheMe_1_1 TorPl_2_3 HunSt_1_2"/>
    </vehicle>
    <vehicle id="car59" depart="1106.00">
        <route edges="GowSt_2_1 TorPl_2_2 TorPl_2_3 HunSt_1_2"/>
    </vehicle>
    <vehicle id="car60" depart="1120.00">
        <route edges="HunSt_1_1 HunSt_1_2"/>
    </vehicle>
    <vehicle id="car61" depart="1124.00">
        <route edges="HunSt_1_1 HunSt_1_2"/>
    </vehicle>
    <vehicle id="car62" depart="1134.00">
        <route edges="GowSt_1_1 TorPl_1_4 BynPl_1_1 BynPl_1_2 BynPl_1_3 GorSq_1_2 GorSq_1_3"/>
    </vehicle>
    <vehicle id="car63" depart="1146.00">
        <route edges="GowSt_2_1 TorPl_2_2 TorPl_2_3 TorPl_2_4"/>
    </vehicle>
    <vehicle id="car64" depart="1165.00">
        <route edges="GowSt_1_1 GowSt_1_2"/>
    </vehicle>
    <vehicle id="car65" depart="1171.00">
        <route edges="CheMe_1_1 TorPl_2_3 TorPl_2_4"/>
    </vehicle>
    <vehicle id="car66" depart="1211.00">
        <route edges="GowSt_2_1 TorPl_2_2 TorPl_2_3 HunSt_1_2"/>
    </vehicle>
    <vehicle id="car67" depart="1212.00">
        <route edges="MalSt_2_1 BynPl_1_1 BynPl_1_2 BynPl_1_3 GorSq_2_3"/>
    </vehicle>
    <vehicle id="car68" depart="1213.00">
        <route edges="GowSt_1_1 GowSt_1_2"/>
    </vehicle>
    <vehicle id="car69" depart="1217.00">
        <route edges="GowSt_1_1 TorPl_2_2 TorPl_2_3 TorPl_2_4"/>
    </vehicle>
    <vehicle id="car70" depart="1305.00">
        <route edges="GowSt_1_1 GowSt_1_2"/>
    </vehicle>
    <vehicle id="car71" depart="1390.00">
        <route edges="GowSt_1_1 TorPl_1_4 BynPl_1_1 BynPl_1_2 BynPl_1_3 GorSq_2_3"/>
    </vehicle>
    <vehicle id="car72" depart="1408.00">
        <route edges="GorSq_1_1 GorSq_1_2 GorSq_1_3"/>
    </vehicle>
    <vehicle id="car73" depart="1422.00">
        <route edges="CheMe_1_1 TorPl_2_3 HunSt_1_2"/>
    </vehicle>
    <vehicle id="car74" depart="1429.00">
        <route edges="RidGa_2_1 TorPl_2_3 TorPl_2_4"/>
    </vehicle>
    <vehicle id="car75" depart="1429.00">
        <route edges="GowSt_1_1 TorPl_2_2 TorPl_2_3 TorPl_2_4"/>
    </vehicle>
    <vehicle id="car76" depart="1433.00">
        <route edges="MalSt_2_1 BynPl_1_1 BynPl_1_2 BynPl_1_3 GorSq_1_2 GorSq_1_3"/>
    </vehicle>
    <vehicle id="car77" depart="1492.00">
        <route edges="HunSt_1_1 HunSt_1_2"/>
    </vehicle>
    <vehicle id="car78" depart="1512.00">
        <route edges="GowSt_1_1 GowSt_1_2"/>
    </vehicle>
    <vehicle id="car79" depart="1520.00">
        <route edges="RidGa_2_1 TorPl_2_3 TorPl_2_4"/>
    </vehicle>
    <vehicle id="car80" depart="1521.00">
        <route edges="GowSt_2_1 TorPl_2_2 TorPl_2_3 TorPl_2_4"/>
    </vehicle>
    <vehicle id="car81" depart="1537.00">
        <route edges="GowSt_1_1 TorPl_1_4 BynPl_1_1 BynPl_1_2 BynPl_1_3 GorSq_2_3"/>
    </vehicle>
    <vehicle id="car82" depart="1539.00">
        <route edges="GowSt_2_1 GowSt_2_2"/>
    </vehicle>
    <vehicle id="car83" depart="1544.00">
        <route edges="GowSt_2_1 TorPl_1_4 BynPl_1_1 BynPl_1_2 BynPl_1_3 GorSq_1_2 GorSq_1_3"/>
    </vehicle>
    <vehicle id="car84" depart="1562.00">
        <route edges="GorSq_1_1 GorSq_1_2 GorSq_1_3"/>
    </vehicle>
    <vehicle id="car85" depart="1564.00">
        <route edges="GowSt_1_1 TorPl_2_2 TorPl_2_3 TorPl_2_4"/>
    </vehicle>
    <vehicle id="car86" depart="1572.00">
        <route edges="RidGa_2_1 TorPl_2_3 HunSt_1_2"/>
    </vehicle>
    <vehicle id="car87" depart="1584.00">
        <route edges="RidGa_2_1 TorPl_2_3 TorPl_2_4"/>
    </vehicle>
    <vehicle id="car88" depart="1585.00">
        <route edges="GowSt_2_1 GowSt_2_2"/>
    </vehicle>
    <vehicle id="car89" depart="1586.00">
        <route edges="RidGa_2_1 TorPl_2_3 TorPl_2_4"/>
    </vehicle>
    <vehicle id="car90" depart="1589.00">
        <route edges="CheMe_1_1 TorPl_2_3 TorPl_2_4"/>
    </vehicle>
    <vehicle id="car91" depart="1594.00">
        <route edges="GowSt_2_1 TorPl_1_4 BynPl_1_1 BynPl_1_2 BynPl_1_3 GorSq_1_2 GorSq_1_3"/>
    </vehicle>
    <vehicle id="car92" depart="1599.00">
        <route edges="MalSt_2_1 BynPl_1_1 BynPl_1_2 BynPl_1_3 GorSq_1_2 GorSq_1_3"/>
    </vehicle>
    <vehicle id="car93" depart="1615.00">
        <route edges="MalSt_2_1 BynPl_1_1 BynPl_1_2 BynPl_1_3 GorSq_1_2 GorSq_1_3"/>
    </vehicle>
    <vehicle id="car94" depart="1624.00">
        <route edges="GorSq_1_1 GorSq_1_2 GorSq_1_3"/>
    </vehicle>
    <vehicle id="car95" depart="1625.00">
        <route edges="GowSt_1_1 TorPl_2_2 TorPl_2_3 TorPl_2_4"/>
    </vehicle>
    <vehicle id="car96" depart="1660.00">
        <route edges="GowSt_1_1 TorPl_1_4 BynPl_1_1 BynPl_1_2 BynPl_1_3 GorSq_2_3"/>
    </vehicle>
    <vehicle id="car97" depart="1661.00">
        <route edges="GowSt_1_1 TorPl_1_4 BynPl_1_1 BynPl_1_2 BynPl_1_3 GorSq_1_2 GorSq_1_3"/>
    </vehicle>
    <vehicle id="car98" depart="1662.00">
        <route edges="GowSt_1_1 TorPl_1_4 BynPl_1_1 BynPl_1_2 BynPl_1_3 GorSq_1_2 GorSq_1_3"/>
    </vehicle>
    <vehicle id="car99" depart="1665.00">
        <route edges="MalSt_2_1 BynPl_1_1 BynPl_1_2 BynPl_1_3 GorSq_2_3"/>
    </vehicle>
    <vehicle id="car100" depart="1711.00">
        <route edges="GowSt_1_1 GowSt_1_2"/>
    </vehicle>
    <vehicle id="car101" depart="1718.00">
        <route edges="MalSt_2_1 BynPl_1_1 BynPl_1_2 BynPl_1_3 GorSq_2_3"/>
    </vehicle>
    <vehicle id="car102" depart="1723.00">
        <route edges="GowSt_2_1 TorPl_2_2 TorPl_2_3 TorPl_2_4"/>
    </vehicle>
    <vehicle id="car103" depart="1736.00">
        <route edges="GowSt_1_1 TorPl_1_4 BynPl_1_1 BynPl_1_2 BynPl_1_3 GorSq_1_2 GorSq_1_3"/>
    </vehicle>
    <vehicle id="car104" depart="1752.00">
        <route edges="MalSt_2_1 BynPl_1_1 BynPl_1_2 BynPl_1_3 GorSq_1_2 GorSq_1_3"/>
    </vehicle>
    <vehicle id="car105" depart="1752.00">
        <route edges="GowSt_1_1 TorPl_2_2 TorPl_2_3 TorPl_2_4"/>
    </vehicle>
    <vehicle id="car106" depart="1764.00">
        <route edges="RidGa_2_1 TorPl_2_3 HunSt_1_2"/>
    </vehicle>
    <vehicle id="car107" depart="1809.00">
        <route edges="CheMe_1_1 TorPl_2_3 TorPl_2_4"/>
    </vehicle>
    <vehicle id="car108" depart="1828.00">
        <route edges="GowSt_1_1 TorPl_2_2 TorPl_2_3 TorPl_2_4"/>
    </vehicle>
    <vehicle id="car109" depart="1848.00">
        <route edges="GowSt_1_1 TorPl_2_2 TorPl_2_3 TorPl_2_4"/>
    </vehicle>
    <vehicle id="car110" depart="1890.00">
        <route edges="MalSt_2_1 BynPl_1_1 BynPl_1_2 BynPl_1_3 GorSq_1_2 GorSq_1_3"/>
    </vehicle>
    <vehicle id="car111" depart="1914.00">
        <route edges="MalSt_2_1 BynPl_1_1 BynPl_1_2 BynPl_1_3 GorSq_1_2 GorSq_1_3"/>
    </vehicle>
    <vehicle id="car112" depart="1942.00">
        <route edges="RidGa_2_1 TorPl_2_3 HunSt_1_2"/>
    </vehicle>
    <vehicle id="car113" depart="1962.00">
        <route edges="GowSt_2_1 GowSt_2_2"/>
    </vehicle>
    <vehicle id="car114" depart="1976.00">
        <route edges="HunSt_1_1 TorPl_2_4"/>
    </vehicle>
    <vehicle id="car115" depart="1987.00">
        <route edges="GowSt_1_1 TorPl_2_2 TorPl_2_3 HunSt_1_2"/>
    </vehicle>
    <vehicle id="car116" depart="2008.00">
        <route edges="HunSt_1_1 TorPl_2_4"/>
    </vehicle>
    <vehicle id="car117" depart="2012.00">
        <route edges="GowSt_2_1 TorPl_2_2 TorPl_2_3 TorPl_2_4"/>
    </vehicle>
    <vehicle id="car118" depart="2020.00">
        <route edges="HunSt_1_1 HunSt_1_2"/>
    </vehicle>
    <vehicle id="car119" depart="2046.00">
        <route edges="GowSt_1_1 TorPl_1_4 BynPl_1_1 BynPl_1_2 BynPl_1_3 GorSq_2_3"/>
    </vehicle>
    <vehicle id="car120" depart="2047.00">
        <route edges="GowSt_2_1 TorPl_2_2 TorPl_2_3 TorPl_2_4"/>
    </vehicle>
    <vehicle id="car121" depart="2049.00">
        <route edges="RidGa_2_1 TorPl_2_3 HunSt_1_2"/>
    </vehicle>
    <vehicle id="car122" depart="2050.00">
        <route edges="CheMe_1_1 TorPl_2_3 HunSt_1_2"/>
    </vehicle>
    <vehicle id="car123" depart="2094.00">
        <route edges="GowSt_1_1 GowSt_1_2"/>
    </vehicle>
    <vehicle id="car124" depart="2106.00">
        <route edges="RidGa_2_1 TorPl_2_3 TorPl_2_4"/>
    </vehicle>
    <vehicle id="car125" depart="2194.00">
        <route edges="RidGa_2_1 TorPl_2_3 TorPl_2_4"/>
    </vehicle>
    <vehicle id="car126" depart="2246.00">
        <route edges="GowSt_2_1 TorPl_2_2 TorPl_2_3 HunSt_1_2"/>
    </vehicle>
    <vehicle id="car127" depart="2282.00">
        <route edges="CheMe_1_1 TorPl_2_3 TorPl_2_4"/>
    </vehicle>
    <vehicle id="car128" depart="2291.00">
        <route edges="CheMe_1_1 TorPl_2_3 TorPl_2_4"/>
    </vehicle>
    <vehicle id="car129" depart="2331.00">
        <route edges="RidGa_2_1 TorPl_2_3 TorPl_2_4"/>
    </vehicle>
    <vehicle id="car130" depart="2353.00">
        <route edges="GowSt_1_1 TorPl_1_4 BynPl_1_1 BynPl_1_2 BynPl_1_3 GorSq_2_3"/>
    </vehicle>
    <vehicle id="car131" depart="2354.00">
        <route edges="GowSt_1_1 GowSt_1_2"/>
    </vehicle>
    <vehicle id="car132" depart="2363.00">
        <route edges="CheMe_1_1 TorPl_2_3 TorPl_2_4"/>
    </vehicle>
    <vehicle id="car133" depart="2410.00">
        <route edges="RidGa_2_1 TorPl_2_3 HunSt_1_2"/>
    </vehicle>
    <vehicle id="car134" depart="2437.00">
        <route edges="HunSt_1_1 TorPl_2_4"/>
    </vehicle>
    <vehicle id="car135" depart="2451.00">
        <route edges="MalSt_2_1 BynPl_1_1 BynPl_1_2 BynPl_1_3 GorSq_1_2 GorSq_1_3"/>
    </vehicle>
    <vehicle id="car136" depart="2460.00">
        <route edges="GorSq_1_1 GorSq_1_2 GorSq_1_3"/>
    </vehicle>
    <vehicle id="car137" depart="2510.00">
        <route edges="RidGa_2_1 TorPl_2_3 TorPl_2_4"/>
    </vehicle>
    <vehicle id="car138" depart="2515.00">
        <route edges="HunSt_1_1 HunSt_1_2"/>
    </vehicle>
    <vehicle id="car139" depart="2528.00">
        <route edges="GowSt_2_1 TorPl_2_2 TorPl_2_3 HunSt_1_2"/>
    </vehicle>
    <vehicle id="car140" depart="2544.00">
        <route edges="MalSt_2_1 BynPl_1_1 BynPl_1_2 BynPl_1_3 GorSq_2_3"/>
    </vehicle>
    <vehicle id="car141" depart="2552.00">
        <route edges="HunSt_1_1 HunSt_1_2"/>
    </vehicle>
    <vehicle id="car142" depart="2575.00">
        <route edges="MalSt_2_1 BynPl_1_1 BynPl_1_2 BynPl_1_3 GorSq_2_3"/>
    </vehicle>
    <vehicle id="car143" depart="2583.00">
        <route edges="MalSt_2_1 BynPl_1_1 BynPl_1_2 BynPl_1_3 GorSq_1_2 GorSq_1_3"/>
    </vehicle>
    <vehicle id="car144" depart="2604.00">
        <route edges="GowSt_2_1 TorPl_1_4 BynPl_1_1 BynPl_1_2 BynPl_1_3 GorSq_2_3"/>
    </vehicle>
    <vehicle id="car145" depart="2606.00">
        <route edges="GowSt_2_1 TorPl_1_4 BynPl_1_1 BynPl_1_2 BynPl_1_3 GorSq_2_3"/>
    </vehicle>
    <vehicle id="car146" depart="2618.00">
        <route edges="GowSt_2_1 TorPl_1_4 BynPl_1_1 BynPl_1_2 BynPl_1_3 GorSq_2_3"/>
    </vehicle>
    <vehicle id="car147" depart="2634.00">
        <route edges="GowSt_2_1 TorPl_2_2 TorPl_2_3 HunSt_1_2"/>
    </vehicle>
    <vehicle id="car148" depart="2641.00">
        <route edges="CheMe_1_1 TorPl_2_3 HunSt_1_2"/>
    </vehicle>
    <vehicle id="car149" depart="2656.00">
        <route edges="GowSt_1_1 TorPl_1_4 BynPl_1_1 BynPl_1_2 BynPl_1_3 GorSq_2_3"/>
    </vehicle>
    <vehicle id="car150" depart="2667.00">
        <route edges="CheMe_1_1 TorPl_2_3 TorPl_2_4"/>
    </vehicle>
    <vehicle id="car151" depart="2696.00">
        <route edges="MalSt_2_1 BynPl_1_1 BynPl_1_2 BynPl_1_3 GorSq_2_3"/>
    </vehicle>
    <vehicle id="car152" depart="2721.00">
        <route edges="RidGa_2_1 TorPl_2_3 TorPl_2_4"/>
    </vehicle>
    <vehicle id="car153" depart="2737.00">
        <route edges="GowSt_2_1 TorPl_1_4 BynPl_1_1 BynPl_1_2 BynPl_1_3 GorSq_2_3"/>
    </vehicle>
    <vehicle id="car154" depart="2738.00">
        <route edges="GowSt_1_1 TorPl_2_2 TorPl_2_3 TorPl_2_4"/>
    </vehicle>
    <vehicle id="car155" depart="2739.00">
        <route edges="RidGa_2_1 TorPl_2_3 HunSt_1_2"/>
    </vehicle>
    <vehicle id="car156" depart="2767.00">
        <route edges="GowSt_1_1 TorPl_2_2 TorPl_2_3 TorPl_2_4"/>
    </vehicle>
    <vehicle id="car157" depart="2785.00">
        <route edges="GowSt_2_1 TorPl_1_4 BynPl_1_1 BynPl_1_2 BynPl_1_3 GorSq_1_2 GorSq_1_3"/>
    </vehicle>
    <vehicle id="car158" depart="2788.00">
        <route edges="GorSq_1_1 GorSq_1_2 GorSq_1_3"/>
    </vehicle>
    <vehicle id="car159" depart="2790.00">
        <route edges="GowSt_2_1 TorPl_1_4 BynPl_1_1 BynPl_1_2 BynPl_1_3 GorSq_1_2 GorSq_1_3"/>
    </vehicle>
    <vehicle id="car160" depart="2798.00">
        <route edges="GowSt_1_1 GowSt_1_2"/>
    </vehicle>
    <vehicle id="car161" depart="2798.00">
        <route edges="HunSt_1_1 HunSt_1_2"/>
    </vehicle>
    <vehicle id="car162" depart="2806.00">
        <route edges="GowSt_2_1 GowSt_2_2"/>
    </vehicle>
    <vehicle id="car163" depart="2828.00">
        <route edges="GowSt_2_1 TorPl_2_2 TorPl_2_3 TorPl_2_4"/>
    </vehicle>
    <vehicle id="car164" depart="2855.00">
        <route edges="HunSt_1_1 TorPl_2_4"/>
    </vehicle>
    <vehicle id="car165" depart="2864.00">
        <route edges="RidGa_2_1 TorPl_2_3 HunSt_1_2"/>
    </vehicle>
    <vehicle id="car166" depart="2873.00">
        <route edges="CheMe_1_1 TorPl_2_3 TorPl_2_4"/>
    </vehicle>
    <vehicle id="car167" depart="2901.00">
        <route edges="GowSt_2_1 TorPl_2_2 TorPl_2_3 HunSt_1_2"/>
    </vehicle>
    <vehicle id="car168" depart="2902.00">
        <route edges="MalSt_2_1 BynPl_1_1 BynPl_1_2 BynPl_1_3 GorSq_1_2 GorSq_1_3"/>
    </vehicle>
    <vehicle id="car169" depart="2906.00">
        <route edges="GowSt_2_1 GowSt_2_2"/>
    </vehicle>
    <vehicle id="car170" depart="2944.00">
        <route edges="GorSq_1_1 GorSq_1_2 GorSq_1_3"/>
    </vehicle>
    <vehicle id="car171" depart="2958.00">
        <route edges="GowSt_1_1 TorPl_1_4 BynPl_1_1 BynPl_1_2 BynPl_1_3 GorSq_2_3"/>
    </vehicle>
    <vehicle id="car172" depart="2977.00">
        <route edges="GowSt_2_1 TorPl_2_2 TorPl_2_3 TorPl_2_4"/>
    </vehicle>
    <vehicle id="car173" depart="3012.00">
        <route edges="GowSt_1_1 TorPl_1_4 BynPl_1_1 BynPl_1_2 BynPl_1_3 GorSq_2_3"/>
    </vehicle>
    <vehicle id="car174" depart="3013.00">
        <route edges="GowSt_2_1 TorPl_1_4 BynPl_1_1 BynPl_1_2 BynPl_1_3 GorSq_1_2 GorSq_1_3"/>
    </vehicle>
    <vehicle id="car175" depart="3013.00">
        <route edges="MalSt_2_1 BynPl_1_1 BynPl_1_2 BynPl_1_3 GorSq_2_3"/>
    </vehicle>
    <vehicle id="car176" depart="3049.00">
        <route edges="GowSt_2_1 TorPl_2_2 TorPl_2_3 TorPl_2_4"/>
    </vehicle>
    <vehicle id="car177" depart="3062.00">
        <route edges="RidGa_2_1 TorPl_2_3 HunSt_1_2"/>
    </vehicle>
    <vehicle id="car178" depart="3069.00">
        <route edges="CheMe_1_1 TorPl_2_3 TorPl_2_4"/>
    </vehicle>
    <vehicle id="car179" depart="3092.00">
        <route edges="GowSt_1_1 TorPl_1_4 BynPl_1_1 BynPl_1_2 BynPl_1_3 GorSq_2_3"/>
    </vehicle>
    <vehicle id="car180" depart="3094.00">
        <route edges="GowSt_2_1 TorPl_1_4 BynPl_1_1 BynPl_1_2 BynPl_1_3 GorSq_2_3"/>
    </vehicle>
    <vehicle id="car181" depart="3095.00">
        <route edges="GorSq_1_1 GorSq_1_2 GorSq_1_3"/>
    </vehicle>
    <vehicle id="car182" depart="3096.00">
        <route edges="RidGa_2_1 TorPl_2_3 TorPl_2_4"/>
    </vehicle>
    <vehicle id="car183" depart="3102.00">
        <route edges="RidGa_2_1 TorPl_2_3 TorPl_2_4"/>
    </vehicle>
    <vehicle id="car184" depart="3151.00">
        <route edges="GowSt_1_1 TorPl_2_2 TorPl_2_3 TorPl_2_4"/>
    </vehicle>
    <vehicle id="car185" depart="3160.00">
        <route edges="CheMe_1_1 TorPl_2_3 HunSt_1_2"/>
    </vehicle>
    <vehicle id="car186" depart="3164.00">
        <route edges="RidGa_2_1 TorPl_2_3 TorPl_2_4"/>
    </vehicle>
    <vehicle id="car187" depart="3167.00">
        <route edges="GowSt_2_1 TorPl_1_4 BynPl_1_1 BynPl_1_2 BynPl_1_3 GorSq_1_2 GorSq_1_3"/>
    </vehicle>
    <vehicle id="car188" depart="3175.00">
        <route edges="GowSt_1_1 TorPl_1_4 BynPl_1_1 BynPl_1_2 BynPl_1_3 GorSq_2_3"/>
    </vehicle>
    <vehicle id="car189" depart="3178.00">
        <route edges="HunSt_1_1 HunSt_1_2"/>
    </vehicle>
    <vehicle id="car190" depart="3243.00">
        <route edges="HunSt_1_1 HunSt_1_2"/>
    </vehicle>
    <vehicle id="car191" depart="3247.00">
        <route edges="GowSt_1_1 TorPl_2_2 TorPl_2_3 HunSt_1_2"/>
    </vehicle>
    <vehicle id="car192" depart="3257.00">
        <route edges="GowSt_1_1 TorPl_1_4 BynPl_1_1 BynPl_1_2 BynPl_1_3 GorSq_1_2 GorSq_1_3"/>
    </vehicle>
    <vehicle id="car193" depart="3282.00">
        <route edges="GowSt_2_1 TorPl_2_2 TorPl_2_3 HunSt_1_2"/>
    </vehicle>
    <vehicle id="car194" depart="3303.00">
        <route edges="GowSt_1_1 TorPl_1_4 BynPl_1_1 BynPl_1_2 BynPl_1_3 GorSq_2_3"/>
    </vehicle>
    <vehicle id="car195" depart="3309.00">
        <route edges="HunSt_1_1 TorPl_2_4"/>
    </vehicle>
    <vehicle id="car196" depart="3332.00">
        <route edges="GowSt_2_1 TorPl_2_2 TorPl_2_3 TorPl_2_4"/>
    </vehicle>
    <vehicle id="car197" depart="3340.00">
        <route edges="GowSt_2_1 TorPl_1_4 BynPl_1_1 BynPl_1_2 BynPl_1_3 GorSq_2_3"/>
    </vehicle>
    <vehicle id="car198" depart="3377.00">
        <route edges="HunSt_1_1 TorPl_2_4"/>
    </vehicle>
    <vehicle id="car199" depart="3400.00">
        <route edges="GowSt_2_1 GowSt_2_2"/>
    </vehicle>
    <vehicle id="car200" depart="3407.00">
        <route edges="GowSt_1_1 TorPl_1_4 BynPl_1_1 BynPl_1_2 BynPl_1_3 GorSq_2_3"/>
    </vehicle>
    <vehicle id="car201" depart="3429.00">
        <route edges="HunSt_1_1 HunSt_1_2"/>
    </vehicle>
    <vehicle id="car202" depart="3432.00">
        <route edges="HunSt_1_1 TorPl_2_4"/>
    </vehicle>
    <vehicle id="car203" depart="3440.00">
        <route edges="GowSt_1_1 TorPl_2_2 TorPl_2_3 HunSt_1_2"/>
    </vehicle>
    <vehicle id="car204" depart="3442.00">
        <route edges="GowSt_2_1 GowSt_2_2"/>
    </vehicle>
    <vehicle id="car205" depart="3443.00">
        <route edges="GowSt_1_1 GowSt_1_2"/>
    </vehicle>
    <vehicle id="car206" depart="3456.00">
        <route edges="CheMe_1_1 TorPl_2_3 TorPl_2_4"/>
    </vehicle>
    <vehicle id="car207" depart="3468.00">
        <route edges="GowSt_2_1 TorPl_2_2 TorPl_2_3 HunSt_1_2"/>
    </vehicle>
    <vehicle id="car208" depart="3501.00">
        <route edges="GowSt_1_1 GowSt_1_2"/>
    </vehicle>
    <vehicle id="car209" depart="3512.00">
        <route edges="GowSt_2_1 TorPl_1_4 BynPl_1_1 BynPl_1_2 BynPl_1_3 GorSq_1_2 GorSq_1_3"/>
    </vehicle>
    <vehicle id="car210" depart="3519.00">
        <route edges="CheMe_1_1 TorPl_2_3 TorPl_2_4"/>
    </vehicle>
    <vehicle id="car211" depart="3527.00">
        <route edges="MalSt_2_1 BynPl_1_1 BynPl_1_2 BynPl_1_3 GorSq_1_2 GorSq_1_3"/>
    </vehicle>
    <vehicle id="car212" depart="3537.00">
        <route edges="GorSq_1_1 GorSq_1_2 GorSq_1_3"/>
    </vehicle>
    <vehicle id="car213" depart="3544.00">
        <route edges="GorSq_1_1 GorSq_1_2 GorSq_1_3"/>
    </vehicle>
    <vehicle id="car214" depart="3545.00">
        <route edges="MalSt_2_1 BynPl_1_1 BynPl_1_2 BynPl_1_3 GorSq_1_2 GorSq_1_3"/>
    </vehicle>
    <vehicle id="car215" depart="3559.00">
        <route edges="GowSt_2_1 TorPl_1_4 BynPl_1_1 BynPl_1_2 BynPl_1_3 GorSq_1_2 GorSq_1_3"/>
    </vehicle>
    <vehicle id="car216" depart="3571.00">
        <route edges="HunSt_1_1 TorPl_2_4"/>
    </vehicle>
    <vehicle id="car217" depart="3581.00">
        <route edges="GowSt_2_1 TorPl_2_2 TorPl_2_3 HunSt_1_2"/>
    </vehicle>
    <vehicle id="car218" depart="3593.00">
        <route edges="GowSt_1_1 GowSt_1_2"/>
    </vehicle>
</routes>
