<?xml version="1.0" encoding="UTF-8"?>

<!-- generated on 2026-01-14 16:07:04.447197 by Eclipse SUMO randomTrips.py UNKNOWN
<configuration>
    <net-file value="../networks/demo/main.net.xml"/>
    <output-trip-file value="../routes/demo/train/10/pedestrian.trips.xml"/>
    <route-file value="../routes/demo/train/10/pedestrian.rou.xml"/>
    <pedestrians value="True"/>
    <prefix value="pedestrian"/>
    <seed value="10"/>
    <insertion-density value="200.0"/>
    <binomial value="100"/>
</configuration>
-->

<!-- generated on 2026-01-14T16:07:04.430850+00:00 by Eclipse SUMO duarouter 1.25.0
<duarouterConfiguration xmlns:xsi="http://www.w3.org/2001/XMLSchema-instance" xsi:noNamespaceSchemaLocation="http://sumo.dlr.de/xsd/duarouterConfiguration.xsd">

    <input>
        <net-file value="../networks/demo/main.net.xml"/>
        <route-files value="../routes/demo/train/10/pedestrian.trips.xml"/>
    </input>

    <output>
        <output-file value="../routes/demo/train/10/pedestrian.rou.xml"/>
        <alternatives-output value="NUL"/>
    </output>

    <time>
        <begin value="0"/>
        <end value="3600.0"/>
    </time>

    <report>
        <no-warnings value="true"/>
        <ignore-errors value="true"/>
        <no-step-log value="true"/>
    </report>

</duarouterConfiguration>
-->

<routes xmlns:xsi="http://www.w3.org/2001/XMLSchema-instance" xsi:noNamespaceSchemaLocation="http://sumo.dlr.de/xsd/routes_file.xsd">
    <person id="pedestrian0" depart="8.00">
        <walk edges="GorSq_1_1 BynPl_1_3"/>
    </person>
    <person id="pedestrian1" depart="11.00">
        <walk edges="BynPl_1_1 TorPl_1_4 TorPl_1_3 TorPl_1_2 HunSt_1_1"/>
    </person>
    <person id="pedestrian2" depart="12.00">
        <walk edges="TorPl_1_3 TorPl_1_4 BynPl_1_1 BynPl_1_2"/>
    </person>
    <person id="pedestrian3" depart="17.00">
        <walk edges="BynPl_1_3 GorSq_1_2"/>
    </person>
    <person id="pedestrian4" depart="19.00">
        <walk edges="GowSt_2_2 GowSt_1_1"/>
    </person>
    <person id="pedestrian5" depart="27.00">
        <walk edges="GorSq_1_3 GorSq_1_2 BynPl_1_3 BynPl_1_2 BynPl_1_1 MalPl_1_1"/>
    </person>
    <person id="pedestrian6" depart="31.00">
        <walk edges="GorSq_2_2 GorSq_1_3"/>
    </person>
    <person id="pedestrian7" depart="33.00">
        <walk edges="GowSt_2_1 GowSt_1_2"/>
    </person>
    <person id="pedestrian8" depart="34.00">
        <walk edges="GorSq_2_1 GorSq_2_2 BynPl_2_1 BynPl_2_2 BynPl_1_1 TorPl_1_4"/>
    </person>
    <person id="pedestrian9" depart="58.00">
        <walk edges="CheMe_1_1 TorPl_1_3 GowSt_2_2"/>
    </person>
    <person id="pedestrian10" depart="59.00">
        <walk edges="TorPl_1_2 HunSt_1_2"/>
    </person>
    <person id="pedestrian11" depart="59.00">
        <walk edges="TorPl_2_1 GowSt_1_2"/>
    </person>
    <person id="pedestrian12" depart="60.00">
        <walk edges="BynPl_2_1 BynPl_2_2 BynPl_2_3 TorPl_2_1 GowSt_2_1"/>
    </person>
    <person id="pedestrian13" depart="61.00">
        <walk edges="GorSq_2_3 BynPl_1_3 BynPl_1_2 BynPl_1_1 TorPl_1_4 TorPl_2_2 TorPl_2_3 HunSt_1_2"/>
    </person>
    <person id="pedestrian14" depart="61.00">
        <walk edges="TorPl_1_3 TorPl_1_2 TorPl_2_3 RidGa_2_1"/>
    </person>
    <person id="pedestrian15" depart="68.00">
        <walk edges="CheMe_1_1 TorPl_1_2 HunSt_2_2"/>
    </person>
    <person id="pedestrian16" depart="69.00">
        <walk edges="HunSt_2_1 TorPl_1_2 CheMe_1_1"/>
    </person>
    <person id="pedestrian17" depart="70.00">
        <walk edges="BynPl_1_1 BynPl_2_2"/>
    </person>
    <person id="pedestrian18" depart="79.00">
        <walk edges="CheMe_2_1 TorPl_1_2 HunSt_1_1"/>
    </person>
    <person id="pedestrian19" depart="80.00">
        <walk edges="MalSt_2_1 BynPl_2_3"/>
    </person>
    <person id="pedestrian20" depart="81.00">
        <walk edges="RidGa_1_1 TorPl_2_2 GowSt_2_2"/>
    </person>
    <person id="pedestrian21" depart="82.00">
        <walk edges="TorPl_1_4 TorPl_1_3 CheMe_2_1"/>
    </person>
    <person id="pedestrian22" depart="91.00">
        <walk edges="RidGa_2_1 TorPl_2_3 HunSt_1_1"/>
    </person>
    <person id="pedestrian23" depart="93.00">
        <walk edges="MalPl_1_1 MalSt_2_1"/>
    </person>
    <person id="pedestrian24" depart="97.00">
        <walk edges="BynPl_2_1 BynPl_1_2"/>
    </person>
    <person id="pedestrian25" depart="99.00">
        <walk edges="TorPl_1_3 GowSt_2_1"/>
    </person>
    <person id="pedestrian26" depart="101.00">
        <walk edges="HunSt_1_1 TorPl_1_2 TorPl_1_3 TorPl_1_4 BynPl_1_1 BynPl_2_2 BynPl_2_1 GorSq_2_2"/>
    </person>
    <person id="pedestrian27" depart="103.00">
        <walk edges="GorSq_1_1 GorSq_1_2"/>
    </person>
    <person id="pedestrian28" depart="112.00">
        <walk edges="BynPl_1_3 GorSq_1_2"/>
    </person>
    <person id="pedestrian29" depart="115.00">
        <walk edges="BynPl_1_1 TorPl_1_4 TorPl_1_3 TorPl_1_2 TorPl_2_4"/>
    </person>
    <person id="pedestrian30" depart="127.00">
        <walk edges="GowSt_2_1 TorPl_2_2 TorPl_2_3 TorPl_1_1"/>
    </person>
    <person id="pedestrian31" depart="134.00">
        <walk edges="MalPl_1_1 TorPl_1_4 TorPl_2_2 TorPl_2_3"/>
    </person>
    <person id="pedestrian32" depart="135.00">
        <walk edges="GorSq_1_1 BynPl_1_3 BynPl_1_2 BynPl_1_1 TorPl_1_4"/>
    </person>
    <person id="pedestrian33" depart="137.00">
        <walk edges="BynPl_1_2 BynPl_1_3 GorSq_1_2 GorSq_1_3"/>
    </person>
    <person id="pedestrian34" depart="142.00">
        <walk edges="RidGa_1_1 TorPl_2_2 TorPl_2_1 BynPl_2_3 BynPl_2_2"/>
    </person>
    <person id="pedestrian35" depart="145.00">
        <walk edges="GorSq_2_3 BynPl_1_3 BynPl_1_2 BynPl_1_1 TorPl_1_4 TorPl_1_3 TorPl_1_2 TorPl_1_1"/>
    </person>
    <person id="pedestrian36" depart="146.00">
        <walk edges="TorPl_1_2 HunSt_2_2"/>
    </person>
    <person id="pedestrian37" depart="156.00">
        <walk edges="GorSq_1_1 BynPl_1_3 BynPl_1_2 BynPl_1_1 TorPl_1_4 TorPl_1_3 TorPl_1_2 HunSt_1_1"/>
    </person>
    <person id="pedestrian38" depart="160.00">
        <walk edges="BynPl_1_1 BynPl_2_2"/>
    </person>
    <person id="pedestrian39" depart="161.00">
        <walk edges="CheMe_2_1 TorPl_1_2 HunSt_1_1"/>
    </person>
    <person id="pedestrian40" depart="163.00">
        <walk edges="GorSq_2_3 BynPl_1_3 BynPl_2_2 BynPl_2_3 MalSt_2_1"/>
    </person>
    <person id="pedestrian41" depart="164.00">
        <walk edges="HunSt_2_1 TorPl_2_3 TorPl_2_2 TorPl_2_1 BynPl_2_3 BynPl_2_2"/>
    </person>
    <person id="pedestrian42" depart="166.00">
        <walk edges="MalPl_2_1 TorPl_1_4 TorPl_2_2 RidGa_2_1"/>
    </person>
    <person id="pedestrian43" depart="171.00">
        <walk edges="BynPl_1_1 TorPl_1_4 GowSt_1_1"/>
    </person>
    <person id="pedestrian44" depart="174.00">
        <walk edges="GorSq_2_2 BynPl_2_1 BynPl_2_2"/>
    </person>
    <person id="pedestrian45" depart="174.00">
        <walk edges="MalPl_1_1 TorPl_1_4 GowSt_2_1"/>
    </person>
    <person id="pedestrian46" depart="182.00">
        <walk edges="HunSt_1_2 TorPl_2_3"/>
    </person>
    <person id="pedestrian47" depart="184.00">
        <walk edges="TorPl_1_2 TorPl_1_3 TorPl_1_4 MalSt_1_1"/>
    </person>
    <person id="pedestrian48" depart="185.00">
        <walk edges="HunSt_2_2 TorPl_1_2 TorPl_1_3 TorPl_1_4 MalSt_1_1"/>
    </person>
    <person id="pedestrian49" depart="187.00">
        <walk edges="GorSq_2_2 BynPl_2_1 BynPl_2_2 BynPl_2_3 TorPl_2_1 TorPl_2_2 TorPl_2_3 HunSt_1_2"/>
    </person>
    <person id="pedestrian50" depart="191.00">
        <walk edges="TorPl_2_2 TorPl_1_3 CheMe_1_1"/>
    </person>
    <person id="pedestrian51" depart="191.00">
        <walk edges="MalPl_1_1 TorPl_1_4 TorPl_2_2 TorPl_2_3"/>
    </person>
    <person id="pedestrian52" depart="197.00">
        <walk edges="BynPl_2_3 MalSt_2_1"/>
    </person>
    <person id="pedestrian53" depart="198.00">
        <walk edges="TorPl_1_1 HunSt_1_1"/>
    </person>
    <person id="pedestrian54" depart="216.00">
        <walk edges="TorPl_2_1 TorPl_2_2 RidGa_2_1"/>
    </person>
    <person id="pedestrian55" depart="220.00">
        <walk edges="CheMe_2_1 TorPl_1_3 TorPl_1_4"/>
    </person>
    <person id="pedestrian56" depart="223.00">
        <walk edges="TorPl_2_4 TorPl_1_2 TorPl_1_3 TorPl_1_4 BynPl_1_1"/>
    </person>
    <person id="pedestrian57" depart="223.00">
        <walk edges="BynPl_1_2"/>
    </person>
    <person id="pedestrian58" depart="223.00">
        <walk edges="MalSt_1_1 MalSt_2_1"/>
    </person>
    <person id="pedestrian59" depart="229.00">
        <walk edges="BynPl_1_1 TorPl_1_4 TorPl_1_3 TorPl_1_2"/>
    </person>
    <person id="pedestrian60" depart="235.00">
        <walk edges="RidGa_1_1 TorPl_2_3 HunSt_2_2"/>
    </person>
    <person id="pedestrian61" depart="236.00">
        <walk edges="TorPl_2_3 TorPl_2_2 GowSt_1_1"/>
    </person>
    <person id="pedestrian62" depart="236.00">
        <walk edges="GorSq_1_1 BynPl_1_3 BynPl_1_2 BynPl_1_1 MalPl_2_1"/>
    </person>
    <person id="pedestrian63" depart="245.00">
        <walk edges="TorPl_1_2 TorPl_1_3 TorPl_2_1"/>
    </person>
    <person id="pedestrian64" depart="246.00">
        <walk edges="GorSq_1_1 BynPl_1_3 BynPl_1_2 BynPl_1_1 MalPl_2_1"/>
    </person>
    <person id="pedestrian65" depart="247.00">
        <walk edges="MalSt_1_1 TorPl_1_4 GowSt_2_2"/>
    </person>
    <person id="pedestrian66" depart="258.00">
        <walk edges="TorPl_1_1 TorPl_1_2 TorPl_1_3 TorPl_1_4 BynPl_2_3"/>
    </person>
    <person id="pedestrian67" depart="264.00">
        <walk edges="GowSt_2_2 GowSt_2_1"/>
    </person>
    <person id="pedestrian68" depart="266.00">
        <walk edges="GorSq_1_2 BynPl_1_3 BynPl_1_2 BynPl_1_1 TorPl_1_4 TorPl_1_3 CheMe_1_1"/>
    </person>
    <person id="pedestrian69" depart="268.00">
        <walk edges="TorPl_2_4 TorPl_2_3 TorPl_2_2 GowSt_2_1"/>
    </person>
    <person id="pedestrian70" depart="269.00">
        <walk edges="BynPl_1_2 BynPl_1_1 TorPl_1_4 GowSt_1_1"/>
    </person>
    <person id="pedestrian71" depart="271.00">
        <walk edges="TorPl_2_4 TorPl_2_3 RidGa_1_1"/>
    </person>
    <person id="pedestrian72" depart="275.00">
        <walk edges="HunSt_1_1 TorPl_1_2 TorPl_1_3 TorPl_1_4 BynPl_1_1 BynPl_1_2 BynPl_1_3 GorSq_1_1"/>
    </person>
    <person id="pedestrian73" depart="277.00">
        <walk edges="GowSt_1_1 TorPl_2_2"/>
    </person>
    <person id="pedestrian74" depart="278.00">
        <walk edges="GowSt_2_2"/>
    </person>
    <person id="pedestrian75" depart="283.00">
        <walk edges="GorSq_2_3 BynPl_1_3 BynPl_2_2"/>
    </person>
    <person id="pedestrian76" depart="285.00">
        <walk edges="TorPl_2_1 TorPl_1_4"/>
    </person>
    <person id="pedestrian77" depart="291.00">
        <walk edges="HunSt_1_1 TorPl_2_3 TorPl_2_2 GowSt_2_1"/>
    </person>
    <person id="pedestrian78" depart="291.00">
        <walk edges="GowSt_1_1 TorPl_1_3 CheMe_2_1"/>
    </person>
    <person id="pedestrian79" depart="296.00">
        <walk edges="BynPl_1_1 TorPl_1_4 TorPl_1_3 TorPl_1_2 TorPl_2_4"/>
    </person>
    <person id="pedestrian80" depart="300.00">
        <walk edges="TorPl_1_3 TorPl_1_4 BynPl_1_1 BynPl_1_2 BynPl_1_3"/>
    </person>
    <person id="pedestrian81" depart="304.00">
        <walk edges="GorSq_1_2 BynPl_1_3 BynPl_1_2"/>
    </person>
    <person id="pedestrian82" depart="307.00">
        <walk edges="GowSt_2_1 TorPl_2_1 BynPl_2_3 BynPl_2_2"/>
    </person>
    <person id="pedestrian83" depart="312.00">
        <walk edges="TorPl_1_3 TorPl_1_4 BynPl_1_1 BynPl_1_2 BynPl_1_3"/>
    </person>
    <person id="pedestrian84" depart="324.00">
        <walk edges="TorPl_2_2 TorPl_1_4 BynPl_1_1 BynPl_1_2 BynPl_1_3"/>
    </person>
    <person id="pedestrian85" depart="331.00">
        <walk edges="TorPl_1_3 TorPl_1_4 BynPl_1_1 BynPl_2_2"/>
    </person>
    <person id="pedestrian86" depart="340.00">
        <walk edges="BynPl_1_2 BynPl_1_1 MalPl_2_1"/>
    </person>
    <person id="pedestrian87" depart="344.00">
        <walk edges="MalPl_2_1 TorPl_1_4 TorPl_2_2 TorPl_2_3 HunSt_1_2"/>
    </person>
    <person id="pedestrian88" depart="346.00">
        <walk edges="MalPl_2_1 TorPl_1_4 TorPl_2_2 RidGa_1_1"/>
    </person>
    <person id="pedestrian89" depart="349.00">
        <walk edges="TorPl_2_3 RidGa_2_1"/>
    </person>
    <person id="pedestrian90" depart="350.00">
        <walk edges="BynPl_2_3 MalSt_1_1"/>
    </person>
    <person id="pedestrian91" depart="353.00">
        <walk edges="GorSq_1_3 GorSq_1_2 BynPl_1_3 BynPl_1_2 BynPl_1_1 TorPl_1_4 TorPl_1_3 TorPl_1_2 TorPl_1_1"/>
    </person>
    <person id="pedestrian92" depart="353.00">
        <walk edges="HunSt_1_1 TorPl_1_2 TorPl_1_3 GowSt_2_2"/>
    </person>
    <person id="pedestrian93" depart="355.00">
        <walk edges="GowSt_1_1 TorPl_1_4"/>
    </person>
    <person id="pedestrian94" depart="359.00">
        <walk edges="BynPl_2_3 TorPl_1_4 GowSt_1_1"/>
    </person>
    <person id="pedestrian95" depart="359.00">
        <walk edges="GowSt_2_2 TorPl_2_2 RidGa_2_1"/>
    </person>
    <person id="pedestrian96" depart="362.00">
        <walk edges="RidGa_2_1 TorPl_2_2 TorPl_2_1 MalSt_1_1"/>
    </person>
    <person id="pedestrian97" depart="378.00">
        <walk edges="CheMe_2_1 TorPl_1_2 TorPl_1_1"/>
    </person>
    <person id="pedestrian98" depart="384.00">
        <walk edges="GorSq_2_3 BynPl_1_3 BynPl_1_2 BynPl_1_1 MalPl_2_1"/>
    </person>
    <person id="pedestrian99" depart="387.00">
        <walk edges="GorSq_1_2 BynPl_1_3 BynPl_1_2 BynPl_1_1 TorPl_1_4 TorPl_1_3 TorPl_1_2"/>
    </person>
    <person id="pedestrian100" depart="388.00">
        <walk edges="HunSt_2_2 TorPl_1_1"/>
    </person>
    <person id="pedestrian101" depart="388.00">
        <walk edges="GowSt_2_2"/>
    </person>
    <person id="pedestrian102" depart="400.00">
        <walk edges="GorSq_2_2 GorSq_1_2"/>
    </person>
    <person id="pedestrian103" depart="401.00">
        <walk edges="BynPl_1_3 BynPl_1_2 BynPl_1_1"/>
    </person>
    <person id="pedestrian104" depart="403.00">
        <walk edges="GowSt_2_1 TorPl_2_2 TorPl_2_3 HunSt_2_1"/>
    </person>
    <person id="pedestrian105" depart="407.00">
        <walk edges="BynPl_1_1 MalSt_2_1"/>
    </person>
    <person id="pedestrian106" depart="425.00">
        <walk edges="TorPl_1_3 CheMe_2_1"/>
    </person>
    <person id="pedestrian107" depart="427.00">
        <walk edges="HunSt_2_2 TorPl_1_2 TorPl_1_3 TorPl_1_4 BynPl_1_1 BynPl_1_2 BynPl_1_3 GorSq_1_2 GorSq_1_3"/>
    </person>
    <person id="pedestrian108" depart="428.00">
        <walk edges="BynPl_2_3 TorPl_2_1 TorPl_2_2 TorPl_2_3 HunSt_1_2"/>
    </person>
    <person id="pedestrian109" depart="430.00">
        <walk edges="GorSq_1_3 GorSq_2_1"/>
    </person>
    <person id="pedestrian110" depart="433.00">
        <walk edges="GorSq_1_3 GorSq_1_2 BynPl_1_3 BynPl_1_2 BynPl_1_1 TorPl_1_4 TorPl_1_3 TorPl_1_2"/>
    </person>
    <person id="pedestrian111" depart="433.00">
        <walk edges="BynPl_1_3 BynPl_1_2 BynPl_1_1 TorPl_1_4 TorPl_2_2"/>
    </person>
    <person id="pedestrian112" depart="434.00">
        <walk edges="MalSt_1_1 TorPl_1_4 TorPl_1_3"/>
    </person>
    <person id="pedestrian113" depart="435.00">
        <walk edges="GorSq_1_3 GorSq_1_2"/>
    </person>
    <person id="pedestrian114" depart="437.00">
        <walk edges="BynPl_1_3 GorSq_1_1"/>
    </person>
    <person id="pedestrian115" depart="440.00">
        <walk edges="TorPl_2_4 TorPl_1_2 CheMe_2_1"/>
    </person>
    <person id="pedestrian116" depart="442.00">
        <walk edges="TorPl_1_2 TorPl_1_3 TorPl_1_4 BynPl_2_3"/>
    </person>
    <person id="pedestrian117" depart="451.00">
        <walk edges="RidGa_1_1 TorPl_2_3 TorPl_2_4"/>
    </person>
    <person id="pedestrian118" depart="456.00">
        <walk edges="GowSt_2_1 TorPl_1_3 CheMe_2_1"/>
    </person>
    <person id="pedestrian119" depart="458.00">
        <walk edges="RidGa_1_1 RidGa_2_1"/>
    </person>
    <person id="pedestrian120" depart="461.00">
        <walk edges="GorSq_2_3 BynPl_1_3 BynPl_1_2 BynPl_1_1 TorPl_1_4 TorPl_1_3 TorPl_1_2 HunSt_2_1"/>
    </person>
    <person id="pedestrian121" depart="464.00">
        <walk edges="GorSq_1_3 GorSq_1_2 BynPl_1_3 BynPl_1_2 BynPl_1_1 TorPl_1_4 TorPl_2_2 TorPl_2_3 HunSt_1_2"/>
    </person>
    <person id="pedestrian122" depart="466.00">
        <walk edges="BynPl_1_3 GorSq_1_2 GorSq_1_3"/>
    </person>
    <person id="pedestrian123" depart="466.00">
        <walk edges="TorPl_2_1 GowSt_2_1"/>
    </person>
    <person id="pedestrian124" depart="474.00">
        <walk edges="RidGa_1_1 TorPl_2_3 TorPl_1_2 CheMe_1_1"/>
    </person>
    <person id="pedestrian125" depart="474.00">
        <walk edges="TorPl_1_1 TorPl_1_2 TorPl_1_3 TorPl_1_4 MalPl_2_1"/>
    </person>
    <person id="pedestrian126" depart="474.00">
        <walk edges="GowSt_1_1 TorPl_1_3 TorPl_1_2"/>
    </person>
    <person id="pedestrian127" depart="477.00">
        <walk edges="GorSq_2_2 BynPl_2_1 BynPl_1_2"/>
    </person>
    <person id="pedestrian128" depart="479.00">
        <walk edges="GorSq_2_2 BynPl_2_1 BynPl_2_2 BynPl_1_1"/>
    </person>
    <person id="pedestrian129" depart="481.00">
        <walk edges="TorPl_1_4 TorPl_1_3 TorPl_1_2"/>
    </person>
    <person id="pedestrian130" depart="485.00">
        <walk edges="CheMe_1_1 TorPl_1_3 TorPl_1_4 BynPl_1_1 BynPl_1_2 BynPl_1_3"/>
    </person>
    <person id="pedestrian131" depart="486.00">
        <walk edges="BynPl_1_3 BynPl_1_2 BynPl_1_1 TorPl_1_4 TorPl_1_3 TorPl_1_2 TorPl_1_1"/>
    </person>
    <person id="pedestrian132" depart="487.00">
        <walk edges="TorPl_2_1 BynPl_2_3 BynPl_2_2 BynPl_2_1"/>
    </person>
    <person id="pedestrian133" depart="488.00">
        <walk edges="CheMe_1_1 TorPl_1_3 TorPl_1_4 BynPl_1_1"/>
    </person>
    <person id="pedestrian134" depart="491.00">
        <walk edges="BynPl_1_3 BynPl_1_2 BynPl_1_1 TorPl_1_4 GowSt_1_2"/>
    </person>
    <person id="pedestrian135" depart="497.00">
        <walk edges="BynPl_1_1 TorPl_1_4 TorPl_1_3 TorPl_1_2 HunSt_2_1"/>
    </person>
    <person id="pedestrian136" depart="497.00">
        <walk edges="GowSt_2_1 GowSt_1_2"/>
    </person>
    <person id="pedestrian137" depart="500.00">
        <walk edges="BynPl_2_1 GorSq_2_2 GorSq_1_3"/>
    </person>
    <person id="pedestrian138" depart="503.00">
        <walk edges="BynPl_1_3 BynPl_1_2 BynPl_1_1 TorPl_1_4 TorPl_1_3 TorPl_1_2"/>
    </person>
    <person id="pedestrian139" depart="505.00">
        <walk edges="TorPl_2_3 TorPl_2_2 TorPl_2_1 MalSt_1_1"/>
    </person>
    <person id="pedestrian140" depart="506.00">
        <walk edges="RidGa_2_1 TorPl_2_3 TorPl_1_1"/>
    </person>
    <person id="pedestrian141" depart="508.00">
        <walk edges="HunSt_2_1 TorPl_1_2"/>
    </person>
    <person id="pedestrian142" depart="513.00">
        <walk edges="GorSq_1_3 GorSq_1_2 GorSq_2_3"/>
    </person>
    <person id="pedestrian143" depart="513.00">
        <walk edges="BynPl_2_1"/>
    </person>
    <person id="pedestrian144" depart="513.00">
        <walk edges="MalPl_1_1 TorPl_1_4 TorPl_1_3 TorPl_1_2 HunSt_1_1"/>
    </person>
    <person id="pedestrian145" depart="519.00">
        <walk edges="MalPl_1_1 TorPl_1_4 TorPl_2_2"/>
    </person>
    <person id="pedestrian146" depart="521.00">
        <walk edges="BynPl_2_3 BynPl_2_2"/>
    </person>
    <person id="pedestrian147" depart="524.00">
        <walk edges="CheMe_2_1 TorPl_1_3 TorPl_1_4"/>
    </person>
    <person id="pedestrian148" depart="526.00">
        <walk edges="HunSt_2_2 TorPl_1_2 TorPl_1_3 TorPl_1_4 BynPl_1_1 BynPl_2_2 BynPl_2_1 GorSq_2_2"/>
    </person>
    <person id="pedestrian149" depart="527.00">
        <walk edges="TorPl_1_4 TorPl_2_2 TorPl_2_3 HunSt_1_2"/>
    </person>
    <person id="pedestrian150" depart="528.00">
        <walk edges="MalPl_2_1 TorPl_1_4 GowSt_2_2"/>
    </person>
    <person id="pedestrian151" depart="534.00">
        <walk edges="TorPl_2_2 TorPl_1_4 BynPl_1_1 BynPl_1_2 BynPl_1_3 GorSq_2_3"/>
    </person>
    <person id="pedestrian152" depart="536.00">
        <walk edges="GowSt_2_2 TorPl_1_4 BynPl_1_1 BynPl_1_2"/>
    </person>
    <person id="pedestrian153" depart="538.00">
        <walk edges="MalPl_2_1 BynPl_1_1 BynPl_2_2 BynPl_2_1 GorSq_2_2"/>
    </person>
    <person id="pedestrian154" depart="544.00">
        <walk edges="TorPl_2_2 TorPl_2_3 TorPl_1_1"/>
    </person>
    <person id="pedestrian155" depart="547.00">
        <walk edges="TorPl_1_3 TorPl_1_2 TorPl_2_3 RidGa_2_1"/>
    </person>
    <person id="pedestrian156" depart="551.00">
        <walk edges="BynPl_1_3 BynPl_1_2 BynPl_1_1"/>
    </person>
    <person id="pedestrian157" depart="561.00">
        <walk edges="TorPl_1_1 TorPl_2_3 RidGa_1_1"/>
    </person>
    <person id="pedestrian158" depart="564.00">
        <walk edges="HunSt_2_2 TorPl_2_3 RidGa_1_1"/>
    </person>
    <person id="pedestrian159" depart="567.00">
        <walk edges="TorPl_1_4 BynPl_1_1 BynPl_1_2 BynPl_1_3 GorSq_1_2"/>
    </person>
    <person id="pedestrian160" depart="569.00">
        <walk edges="HunSt_1_1 TorPl_1_2 TorPl_1_3 TorPl_1_4 BynPl_1_1 BynPl_1_2 BynPl_1_3 GorSq_2_3"/>
    </person>
    <person id="pedestrian161" depart="574.00">
        <walk edges="MalSt_1_1"/>
    </person>
    <person id="pedestrian162" depart="576.00">
        <walk edges="HunSt_1_1 HunSt_1_2"/>
    </person>
    <person id="pedestrian163" depart="579.00">
        <walk edges="TorPl_1_4 TorPl_2_2 TorPl_2_3 HunSt_1_2"/>
    </person>
    <person id="pedestrian164" depart="582.00">
        <walk edges="TorPl_2_2 RidGa_1_1"/>
    </person>
    <person id="pedestrian165" depart="585.00">
        <walk edges="CheMe_2_1 TorPl_1_3 TorPl_2_1"/>
    </person>
    <person id="pedestrian166" depart="586.00">
        <walk edges="CheMe_2_1 TorPl_1_3 GowSt_2_1"/>
    </person>
    <person id="pedestrian167" depart="588.00">
        <walk edges="BynPl_2_1 BynPl_2_2 BynPl_1_1 TorPl_1_4 TorPl_1_3 TorPl_1_2 HunSt_1_1"/>
    </person>
    <person id="pedestrian168" depart="594.00">
        <walk edges="TorPl_2_2 TorPl_2_3"/>
    </person>
    <person id="pedestrian169" depart="595.00">
        <walk edges="BynPl_2_3 MalSt_1_1"/>
    </person>
    <person id="pedestrian170" depart="603.00">
        <walk edges="TorPl_1_3 TorPl_1_4 BynPl_1_1 BynPl_1_2 BynPl_1_3 GorSq_2_3"/>
    </person>
    <person id="pedestrian171" depart="613.00">
        <walk edges="CheMe_1_1 TorPl_1_2 HunSt_2_1"/>
    </person>
    <person id="pedestrian172" depart="618.00">
        <walk edges="MalPl_1_1 TorPl_1_4 TorPl_1_3 TorPl_1_2 TorPl_1_1"/>
    </person>
    <person id="pedestrian173" depart="629.00">
        <walk edges="MalSt_1_1 TorPl_2_1 GowSt_2_1"/>
    </person>
    <person id="pedestrian174" depart="637.00">
        <walk edges="TorPl_2_2 TorPl_2_1 MalSt_1_1"/>
    </person>
    <person id="pedestrian175" depart="649.00">
        <walk edges="GorSq_1_2 BynPl_1_3 BynPl_2_2 BynPl_2_3 TorPl_2_1"/>
    </person>
    <person id="pedestrian176" depart="651.00">
        <walk edges="BynPl_1_3 BynPl_1_2 BynPl_1_1 TorPl_1_4 GowSt_2_1"/>
    </person>
    <person id="pedestrian177" depart="652.00">
        <walk edges="CheMe_2_1 TorPl_1_3 TorPl_2_1 MalSt_2_1"/>
    </person>
    <person id="pedestrian178" depart="654.00">
        <walk edges="GorSq_1_3 GorSq_1_2 BynPl_1_3 BynPl_1_2 BynPl_1_1 TorPl_1_4 GowSt_2_2"/>
    </person>
    <person id="pedestrian179" depart="656.00">
        <walk edges="BynPl_2_2 BynPl_1_1 TorPl_1_4 TorPl_1_3"/>
    </person>
    <person id="pedestrian180" depart="657.00">
        <walk edges="GowSt_2_2 TorPl_2_1"/>
    </person>
    <person id="pedestrian181" depart="658.00">
        <walk edges="BynPl_1_1 BynPl_1_2 BynPl_1_3 GorSq_1_1"/>
    </person>
    <person id="pedestrian182" depart="658.00">
        <walk edges="GowSt_2_1 TorPl_1_4 BynPl_1_1 BynPl_1_2 BynPl_1_3 GorSq_1_2"/>
    </person>
    <person id="pedestrian183" depart="659.00">
        <walk edges="BynPl_2_1 BynPl_2_2 BynPl_2_3 TorPl_2_1 TorPl_2_2 TorPl_2_3 HunSt_1_2"/>
    </person>
    <person id="pedestrian184" depart="662.00">
        <walk edges="HunSt_1_2 TorPl_2_3 TorPl_2_2 GowSt_2_2"/>
    </person>
    <person id="pedestrian185" depart="663.00">
        <walk edges="GorSq_2_1 GorSq_2_2 BynPl_2_1 BynPl_2_2 BynPl_1_1 TorPl_1_4 TorPl_1_3 CheMe_1_1"/>
    </person>
    <person id="pedestrian186" depart="672.00">
        <walk edges="HunSt_2_1 TorPl_1_1"/>
    </person>
    <person id="pedestrian187" depart="673.00">
        <walk edges="GowSt_1_2 TorPl_1_4"/>
    </person>
    <person id="pedestrian188" depart="679.00">
        <walk edges="MalSt_1_1 BynPl_1_1"/>
    </person>
    <person id="pedestrian189" depart="680.00">
        <walk edges="GorSq_1_1 BynPl_1_3 BynPl_1_2 BynPl_1_1 TorPl_1_4 TorPl_1_3 TorPl_1_2 HunSt_2_1"/>
    </person>
    <person id="pedestrian190" depart="683.00">
        <walk edges="CheMe_1_1 TorPl_1_2 HunSt_1_2"/>
    </person>
    <person id="pedestrian191" depart="683.00">
        <walk edges="CheMe_1_1 TorPl_1_3 GowSt_1_1"/>
    </person>
    <person id="pedestrian192" depart="688.00">
        <walk edges="GowSt_1_1 TorPl_1_4 BynPl_1_1 BynPl_1_2 BynPl_1_3 GorSq_1_2"/>
    </person>
    <person id="pedestrian193" depart="692.00">
        <walk edges="BynPl_2_3 TorPl_2_1 TorPl_2_2 TorPl_2_3 TorPl_2_4"/>
    </person>
    <person id="pedestrian194" depart="693.00">
        <walk edges="RidGa_1_1 TorPl_2_2 TorPl_1_4 BynPl_1_1 BynPl_1_2"/>
    </person>
    <person id="pedestrian195" depart="693.00">
        <walk edges="TorPl_1_4 MalPl_1_1"/>
    </person>
    <person id="pedestrian196" depart="696.00">
        <walk edges="HunSt_2_2 TorPl_1_2 TorPl_1_3 GowSt_2_2"/>
    </person>
    <person id="pedestrian197" depart="697.00">
        <walk edges="GowSt_1_1 TorPl_1_4 BynPl_1_1 BynPl_1_2 BynPl_1_3 GorSq_2_3"/>
    </person>
    <person id="pedestrian198" depart="698.00">
        <walk edges="TorPl_1_2 TorPl_1_3 TorPl_1_4 BynPl_1_1 BynPl_1_2 BynPl_1_3 GorSq_2_3"/>
    </person>
    <person id="pedestrian199" depart="698.00">
        <walk edges="MalPl_2_1 BynPl_1_1 BynPl_1_2 BynPl_1_3 GorSq_2_3"/>
    </person>
    <person id="pedestrian200" depart="698.00">
        <walk edges="RidGa_2_1 TorPl_2_2 TorPl_2_1"/>
    </person>
    <person id="pedestrian201" depart="700.00">
        <walk edges="MalPl_1_1 BynPl_1_1 BynPl_1_2 BynPl_1_3"/>
    </person>
    <person id="pedestrian202" depart="703.00">
        <walk edges="GorSq_1_3 GorSq_2_2 BynPl_2_1"/>
    </person>
    <person id="pedestrian203" depart="704.00">
        <walk edges="HunSt_2_2 TorPl_1_2 TorPl_1_3 TorPl_1_4 BynPl_1_1 BynPl_1_2 BynPl_1_3 GorSq_1_2 GorSq_1_3"/>
    </person>
    <person id="pedestrian204" depart="704.00">
        <walk edges="GowSt_1_1 TorPl_2_1 MalSt_2_1"/>
    </person>
    <person id="pedestrian205" depart="707.00">
        <walk edges="GorSq_2_1 GorSq_2_2"/>
    </person>
    <person id="pedestrian206" depart="713.00">
        <walk edges="TorPl_2_1 GowSt_1_2"/>
    </person>
    <person id="pedestrian207" depart="714.00">
        <walk edges="HunSt_1_1 TorPl_1_2 TorPl_1_3 TorPl_1_4"/>
    </person>
    <person id="pedestrian208" depart="716.00">
        <walk edges="TorPl_2_3 TorPl_2_2 TorPl_2_1 MalSt_2_1"/>
    </person>
    <person id="pedestrian209" depart="720.00">
        <walk edges="GorSq_2_2 BynPl_2_1 BynPl_2_2 BynPl_2_3 MalSt_2_1"/>
    </person>
    <person id="pedestrian210" depart="721.00">
        <walk edges="MalSt_1_1 BynPl_2_3 BynPl_2_2 BynPl_2_1 GorSq_2_2"/>
    </person>
    <person id="pedestrian211" depart="722.00">
        <walk edges="CheMe_1_1 TorPl_1_2"/>
    </person>
    <person id="pedestrian212" depart="725.00">
        <walk edges="TorPl_2_1 BynPl_2_3 BynPl_2_2 BynPl_1_3 GorSq_1_1"/>
    </person>
    <person id="pedestrian213" depart="726.00">
        <walk edges="TorPl_2_3 HunSt_2_2"/>
    </person>
    <person id="pedestrian214" depart="728.00">
        <walk edges="CheMe_2_1 TorPl_1_3"/>
    </person>
    <person id="pedestrian215" depart="737.00">
        <walk edges="TorPl_2_2 TorPl_2_1 BynPl_2_3"/>
    </person>
    <person id="pedestrian216" depart="738.00">
        <walk edges="BynPl_2_3 TorPl_2_1 TorPl_2_2 RidGa_1_1"/>
    </person>
    <person id="pedestrian217" depart="740.00">
        <walk edges="GowSt_1_2"/>
    </person>
    <person id="pedestrian218" depart="741.00">
        <walk edges="GorSq_2_2 GorSq_1_2"/>
    </person>
    <person id="pedestrian219" depart="748.00">
        <walk edges="BynPl_2_1 BynPl_2_2 BynPl_2_3 TorPl_2_1 TorPl_2_2 TorPl_2_3 HunSt_2_1"/>
    </person>
    <person id="pedestrian220" depart="749.00">
        <walk edges="TorPl_1_4 BynPl_1_1 BynPl_1_2 BynPl_1_3"/>
    </person>
    <person id="pedestrian221" depart="750.00">
        <walk edges="BynPl_1_2 BynPl_2_3"/>
    </person>
    <person id="pedestrian222" depart="755.00">
        <walk edges="RidGa_2_1 TorPl_2_2"/>
    </person>
    <person id="pedestrian223" depart="764.00">
        <walk edges="GorSq_1_2 BynPl_1_3 BynPl_1_2 BynPl_1_1 TorPl_1_4"/>
    </person>
    <person id="pedestrian224" depart="765.00">
        <walk edges="GorSq_2_1 GorSq_2_2 BynPl_2_1"/>
    </person>
    <person id="pedestrian225" depart="768.00">
        <walk edges="HunSt_1_1"/>
    </person>
    <person id="pedestrian226" depart="768.00">
        <walk edges="HunSt_2_1 TorPl_1_2 CheMe_2_1"/>
    </person>
    <person id="pedestrian227" depart="772.00">
        <walk edges="GorSq_2_1 GorSq_2_2 BynPl_2_1 BynPl_2_2 BynPl_1_1 TorPl_1_4 TorPl_1_3"/>
    </person>
    <person id="pedestrian228" depart="782.00">
        <walk edges="RidGa_1_1 TorPl_2_3 TorPl_1_1"/>
    </person>
    <person id="pedestrian229" depart="784.00">
        <walk edges="HunSt_2_2 TorPl_1_2 TorPl_1_3 TorPl_1_4 BynPl_1_1 BynPl_2_2 BynPl_2_1 GorSq_2_2"/>
    </person>
    <person id="pedestrian230" depart="799.00">