<?xml version="1.0" encoding="UTF-8"?>

<!-- generated on 2026-01-14 16:46:40.315127 by Eclipse SUMO randomTrips.py UNKNOWN
<configuration>
    <net-file value="../networks/demo/main.net.xml"/>
    <output-trip-file value="../routes/demo/train/1000/pedestrian.trips.xml"/>
    <route-file value="../routes/demo/train/1000/pedestrian.rou.xml"/>
    <pedestrians value="True"/>
    <prefix value="pedestrian"/>
    <seed value="1000"/>
    <insertion-density value="200.0"/>
    <binomial value="100"/>
</configuration>
-->

<!-- generated on 2026-01-14T16:46:40.300071+00:00 by Eclipse SUMO duarouter 1.25.0
<duarouterConfiguration xmlns:xsi="http://www.w3.org/2001/XMLSchema-instance" xsi:noNamespaceSchemaLocation="http://sumo.dlr.de/xsd/duarouterConfiguration.xsd">

    <input>
        <net-file value="../networks/demo/main.net.xml"/>
        <route-files value="../routes/demo/train/1000/pedestrian.trips.xml"/>
    </input>

    <output>
        <output-file value="../routes/demo/train/1000/pedestrian.rou.xml"/>
        <alternatives-output value="NUL"/>
    </output>

    <time>
        <begin value="0"/>
        <end value="3600.0"/>
    </time>

    <report>
        <no-warnings value="true"/>
        <ignore-errors value="true"/>
        <no-step-log value="true"/>
    </report>

</duarouterConfiguration>
-->

<routes xmlns:xsi="http://www.w3.org/2001/XMLSchema-instance" xsi:noNamespaceSchemaLocation="http://sumo.dlr.de/xsd/routes_file.xsd">
    <person id="pedestrian0" depart="14.00">
        <walk edges="RidGa_1_1 TorPl_2_2 TorPl_1_4"/>
    </person>
    <person id="pedestrian1" depart="16.00">
        <walk edges="BynPl_2_3 TorPl_2_1 TorPl_2_2 TorPl_2_3"/>
    </person>
    <person id="pedestrian2" depart="21.00">
        <walk edges="GowSt_1_2 TorPl_2_1 BynPl_2_3 BynPl_2_2 BynPl_2_1 GorSq_2_2 GorSq_2_1"/>
    </person>
    <person id="pedestrian3" depart="21.00">
        <walk edges="GorSq_1_2 BynPl_1_3 BynPl_1_2 BynPl_1_1 TorPl_1_4 GowSt_2_2"/>
    </person>
    <person id="pedestrian4" depart="21.00">
        <walk edges="GorSq_1_2 BynPl_1_3 BynPl_1_2 BynPl_1_1 TorPl_1_4"/>
    </person>
    <person id="pedestrian5" depart="28.00">
        <walk edges="BynPl_1_1 TorPl_1_4 TorPl_1_3 CheMe_2_1"/>
    </person>
    <person id="pedestrian6" depart="29.00">
        <walk edges="HunSt_1_1 TorPl_1_2 CheMe_2_1"/>
    </person>
    <person id="pedestrian7" depart="31.00">
        <walk edges="GorSq_1_3 GorSq_1_2 BynPl_1_3 BynPl_2_2 BynPl_2_3"/>
    </person>
    <person id="pedestrian8" depart="33.00">
        <walk edges="BynPl_2_1 BynPl_2_2 BynPl_1_1 TorPl_1_4 TorPl_1_3 TorPl_1_2 HunSt_1_1"/>
    </person>
    <person id="pedestrian9" depart="35.00">
        <walk edges="TorPl_1_2 TorPl_1_3 TorPl_2_1 MalSt_2_1"/>
    </person>
    <person id="pedestrian10" depart="35.00">
        <walk edges="HunSt_1_2 HunSt_2_1"/>
    </person>
    <person id="pedestrian11" depart="36.00">
        <walk edges="BynPl_1_1 TorPl_1_4 TorPl_1_3 TorPl_1_2 HunSt_2_1"/>
    </person>
    <person id="pedestrian12" depart="38.00">
        <walk edges="GorSq_1_2 BynPl_1_3 BynPl_1_2 BynPl_1_1 TorPl_1_4 GowSt_2_2"/>
    </person>
    <person id="pedestrian13" depart="41.00">
        <walk edges="GorSq_1_3 GorSq_1_2 GorSq_1_1"/>
    </person>
    <person id="pedestrian14" depart="57.00">
        <walk edges="TorPl_1_3 TorPl_1_4 MalPl_1_1"/>
    </person>
    <person id="pedestrian15" depart="57.00">
        <walk edges="TorPl_2_4 HunSt_1_1"/>
    </person>
    <person id="pedestrian16" depart="62.00">
        <walk edges="GorSq_1_3 GorSq_1_2 BynPl_1_3 BynPl_1_2 BynPl_1_1"/>
    </person>
    <person id="pedestrian17" depart="62.00">
        <walk edges="RidGa_2_1"/>
    </person>
    <person id="pedestrian18" depart="64.00">
        <walk edges="BynPl_1_1 TorPl_1_4 TorPl_1_3"/>
    </person>
    <person id="pedestrian19" depart="68.00">
        <walk edges="TorPl_2_1 BynPl_2_3 BynPl_2_2 BynPl_1_3 GorSq_1_2 GorSq_1_3"/>
    </person>
    <person id="pedestrian20" depart="70.00">
        <walk edges="HunSt_1_1 TorPl_2_4"/>
    </person>
    <person id="pedestrian21" depart="71.00">
        <walk edges="BynPl_2_1 BynPl_2_2 BynPl_2_3"/>
    </person>
    <person id="pedestrian22" depart="74.00">
        <walk edges="MalSt_1_1 TorPl_2_1"/>
    </person>
    <person id="pedestrian23" depart="78.00">
        <walk edges="TorPl_1_2 TorPl_1_3 TorPl_1_4 MalPl_1_1"/>
    </person>
    <person id="pedestrian24" depart="78.00">
        <walk edges="BynPl_2_1 BynPl_2_2 BynPl_1_1 TorPl_1_4 TorPl_1_3 TorPl_1_2 HunSt_2_2"/>
    </person>
    <person id="pedestrian25" depart="82.00">
        <walk edges="MalSt_1_1 BynPl_2_3 BynPl_2_2 BynPl_1_3"/>
    </person>
    <person id="pedestrian26" depart="87.00">
        <walk edges="BynPl_1_1 TorPl_1_4"/>
    </person>
    <person id="pedestrian27" depart="94.00">
        <walk edges="TorPl_2_1 BynPl_2_3 BynPl_1_2"/>
    </person>
    <person id="pedestrian28" depart="109.00">
        <walk edges="TorPl_2_4 HunSt_2_1"/>
    </person>
    <person id="pedestrian29" depart="112.00">
        <walk edges="TorPl_2_4 TorPl_1_2 TorPl_1_3 TorPl_1_4 BynPl_1_1 BynPl_1_2 BynPl_1_3"/>
    </person>
    <person id="pedestrian30" depart="113.00">
        <walk edges="GorSq_1_1 BynPl_1_3 BynPl_1_2 BynPl_1_1 TorPl_1_4 TorPl_1_3 CheMe_2_1"/>
    </person>
    <person id="pedestrian31" depart="117.00">
        <walk edges="BynPl_1_3 BynPl_1_2 BynPl_1_1 TorPl_1_4 TorPl_1_3"/>
    </person>
    <person id="pedestrian32" depart="125.00">
        <walk edges="BynPl_1_1 BynPl_1_2 BynPl_1_3"/>
    </person>
    <person id="pedestrian33" depart="125.00">
        <walk edges="TorPl_1_4 TorPl_1_3 TorPl_1_2 TorPl_1_1"/>
    </person>
    <person id="pedestrian34" depart="128.00">
        <walk edges="GorSq_2_2 GorSq_1_2 GorSq_1_1"/>
    </person>
    <person id="pedestrian35" depart="130.00">
        <walk edges="GorSq_1_3 GorSq_1_2 BynPl_1_3 BynPl_1_2 BynPl_1_1 TorPl_1_4 TorPl_1_3 TorPl_1_2"/>
    </person>
    <person id="pedestrian36" depart="130.00">
        <walk edges="BynPl_1_3 BynPl_2_2 BynPl_2_3 TorPl_2_1"/>
    </person>
    <person id="pedestrian37" depart="147.00">
        <walk edges="CheMe_2_1 TorPl_1_3 GowSt_1_1"/>
    </person>
    <person id="pedestrian38" depart="154.00">
        <walk edges="GorSq_2_3 BynPl_1_3 BynPl_1_2 BynPl_1_1 TorPl_1_4 TorPl_1_3 CheMe_2_1"/>
    </person>
    <person id="pedestrian39" depart="160.00">
        <walk edges="TorPl_2_2 TorPl_1_4 BynPl_1_1 BynPl_1_2"/>
    </person>
    <person id="pedestrian40" depart="161.00">
        <walk edges="CheMe_1_1 TorPl_1_2 TorPl_2_3"/>
    </person>
    <person id="pedestrian41" depart="166.00">
        <walk edges="GorSq_2_1 GorSq_2_2 BynPl_2_1 BynPl_2_2 BynPl_2_3"/>
    </person>
    <person id="pedestrian42" depart="173.00">
        <walk edges="BynPl_1_2 BynPl_2_2 BynPl_2_1"/>
    </person>
    <person id="pedestrian43" depart="174.00">
        <walk edges="HunSt_2_2 HunSt_1_1"/>
    </person>
    <person id="pedestrian44" depart="175.00">
        <walk edges="TorPl_2_2 GowSt_1_1"/>
    </person>
    <person id="pedestrian45" depart="176.00">
        <walk edges="BynPl_1_1 TorPl_1_4 TorPl_1_3 TorPl_1_2"/>
    </person>
    <person id="pedestrian46" depart="178.00">
        <walk edges="BynPl_1_1 TorPl_1_4 TorPl_1_3 TorPl_1_2"/>
    </person>
    <person id="pedestrian47" depart="189.00">
        <walk edges="TorPl_2_2 RidGa_1_1"/>
    </person>
    <person id="pedestrian48" depart="190.00">
        <walk edges="TorPl_1_2 TorPl_1_3 TorPl_1_4 BynPl_1_1 BynPl_1_2"/>
    </person>
    <person id="pedestrian49" depart="192.00">
        <walk edges="HunSt_2_1 TorPl_2_3 TorPl_2_2 GowSt_1_2"/>
    </person>
    <person id="pedestrian50" depart="192.00">
        <walk edges="GowSt_2_1 TorPl_1_4 BynPl_1_1 BynPl_1_2 BynPl_1_3 GorSq_1_1"/>
    </person>
    <person id="pedestrian51" depart="200.00">
        <walk edges="GowSt_2_1 TorPl_2_2 TorPl_2_3 HunSt_1_1"/>
    </person>
    <person id="pedestrian52" depart="203.00">
        <walk edges="MalSt_2_1 TorPl_2_1 TorPl_2_2 TorPl_2_3 TorPl_1_1"/>
    </person>
    <person id="pedestrian53" depart="208.00">
        <walk edges="MalPl_2_1 TorPl_1_4 TorPl_1_3 TorPl_1_2 HunSt_2_1"/>
    </person>
    <person id="pedestrian54" depart="208.00">
        <walk edges="RidGa_2_1 TorPl_2_2 TorPl_1_3"/>
    </person>
    <person id="pedestrian55" depart="209.00">
        <walk edges="TorPl_2_3 TorPl_1_2 CheMe_1_1"/>
    </person>
    <person id="pedestrian56" depart="216.00">
        <walk edges="TorPl_1_2 TorPl_2_3 RidGa_1_1"/>
    </person>
    <person id="pedestrian57" depart="223.00">
        <walk edges="RidGa_1_1 TorPl_2_2 TorPl_1_4 BynPl_1_1 BynPl_1_2 BynPl_1_3 GorSq_2_3"/>
    </person>
    <person id="pedestrian58" depart="223.00">
        <walk edges="TorPl_2_4 TorPl_2_3 TorPl_2_2 TorPl_2_1 BynPl_2_3 BynPl_2_2 BynPl_2_1 GorSq_2_2"/>
    </person>
    <person id="pedestrian59" depart="223.00">
        <walk edges="TorPl_2_3 HunSt_2_2"/>
    </person>
    <person id="pedestrian60" depart="232.00">
        <walk edges="TorPl_1_3 TorPl_1_4 BynPl_1_1 BynPl_1_2 BynPl_1_3 GorSq_2_3"/>
    </person>
    <person id="pedestrian61" depart="233.00">
        <walk edges="BynPl_1_2 BynPl_1_1 TorPl_1_4 TorPl_1_3 TorPl_1_2 TorPl_1_1"/>
    </person>
    <person id="pedestrian62" depart="249.00">
        <walk edges="GorSq_2_3 BynPl_1_3 BynPl_2_2 BynPl_2_3 MalSt_1_1"/>
    </person>
    <person id="pedestrian63" depart="266.00">
        <walk edges="MalPl_1_1"/>
    </person>
    <person id="pedestrian64" depart="268.00">
        <walk edges="TorPl_1_3 TorPl_1_2 TorPl_2_4"/>
    </person>
    <person id="pedestrian65" depart="277.00">
        <walk edges="RidGa_2_1 TorPl_2_3 HunSt_2_1"/>
    </person>
    <person id="pedestrian66" depart="278.00">
        <walk edges="HunSt_2_2 TorPl_1_2 CheMe_2_1"/>
    </person>
    <person id="pedestrian67" depart="288.00">
        <walk edges="MalSt_2_1 TorPl_2_1 GowSt_1_1"/>
    </person>
    <person id="pedestrian68" depart="290.00">
        <walk edges="HunSt_1_2 TorPl_2_3 TorPl_2_2 TorPl_1_4 BynPl_1_1 BynPl_1_2 BynPl_1_3 GorSq_1_1"/>
    </person>
    <person id="pedestrian69" depart="296.00">
        <walk edges="CheMe_1_1 TorPl_1_3 GowSt_1_2"/>
    </person>
    <person id="pedestrian70" depart="297.00">
        <walk edges="BynPl_2_1 BynPl_2_2 BynPl_2_3 TorPl_2_1 TorPl_2_2 TorPl_2_3 HunSt_2_1"/>
    </person>
    <person id="pedestrian71" depart="299.00">
        <walk edges="BynPl_2_1 BynPl_1_3 GorSq_2_3"/>
    </person>
    <person id="pedestrian72" depart="303.00">
        <walk edges="HunSt_1_2 TorPl_2_3 TorPl_2_2"/>
    </person>
    <person id="pedestrian73" depart="307.00">
        <walk edges="GorSq_1_3 GorSq_1_2 BynPl_1_3 BynPl_1_2 BynPl_1_1 TorPl_1_4 GowSt_2_1"/>
    </person>
    <person id="pedestrian74" depart="308.00">
        <walk edges="BynPl_1_1 TorPl_1_4 TorPl_1_3 CheMe_2_1"/>
    </person>
    <person id="pedestrian75" depart="310.00">
        <walk edges="GowSt_1_2 TorPl_1_4 BynPl_1_1 BynPl_1_2 BynPl_1_3 GorSq_1_1"/>
    </person>
    <person id="pedestrian76" depart="315.00">
        <walk edges="RidGa_1_1 TorPl_2_3 TorPl_1_2 CheMe_2_1"/>
    </person>
    <person id="pedestrian77" depart="320.00">
        <walk edges="MalSt_1_1 TorPl_1_4 TorPl_1_3 TorPl_1_2 HunSt_2_2"/>
    </person>
    <person id="pedestrian78" depart="324.00">
        <walk edges="GorSq_1_1 BynPl_1_3 BynPl_1_2 BynPl_1_1 TorPl_1_4 TorPl_2_2 TorPl_2_3 HunSt_1_2"/>
    </person>
    <person id="pedestrian79" depart="324.00">
        <walk edges="MalSt_2_1 TorPl_2_1"/>
    </person>
    <person id="pedestrian80" depart="325.00">
        <walk edges="GorSq_1_2 BynPl_1_3 BynPl_1_2 BynPl_1_1 TorPl_1_4 TorPl_2_2 RidGa_1_1"/>
    </person>
    <person id="pedestrian81" depart="329.00">
        <walk edges="GorSq_2_1 GorSq_2_2 BynPl_2_1 BynPl_2_2 BynPl_2_3 TorPl_2_1 TorPl_2_2 TorPl_2_3 HunSt_1_2"/>
    </person>
    <person id="pedestrian82" depart="331.00">
        <walk edges="TorPl_2_1 TorPl_2_2 TorPl_2_3 TorPl_2_4"/>
    </person>
    <person id="pedestrian83" depart="335.00">
        <walk edges="HunSt_2_1 TorPl_2_3 RidGa_2_1"/>
    </person>
    <person id="pedestrian84" depart="336.00">
        <walk edges="BynPl_2_2 BynPl_1_1"/>
    </person>
    <person id="pedestrian85" depart="343.00">
        <walk edges="TorPl_2_4 TorPl_1_2"/>
    </person>
    <person id="pedestrian86" depart="344.00">
        <walk edges="GowSt_2_2 GowSt_1_1"/>
    </person>
    <person id="pedestrian87" depart="351.00">
        <walk edges="MalSt_1_1 BynPl_2_3 BynPl_2_2 BynPl_2_1"/>
    </person>
    <person id="pedestrian88" depart="352.00">
        <walk edges="MalPl_1_1 TorPl_1_4 GowSt_1_2"/>
    </person>
    <person id="pedestrian89" depart="356.00">
        <walk edges="MalPl_2_1 MalSt_1_1"/>
    </person>
    <person id="pedestrian90" depart="357.00">
        <walk edges="TorPl_2_1 TorPl_2_2 TorPl_2_3 HunSt_1_1"/>
    </person>
    <person id="pedestrian91" depart="363.00">
        <walk edges="BynPl_2_2 BynPl_2_3 MalSt_1_1"/>
    </person>
    <person id="pedestrian92" depart="363.00">
        <walk edges="MalPl_1_1 MalPl_2_1"/>
    </person>
    <person id="pedestrian93" depart="379.00">
        <walk edges="GowSt_2_2 TorPl_1_4"/>
    </person>
    <person id="pedestrian94" depart="381.00">
        <walk edges="BynPl_2_1 BynPl_2_2 BynPl_2_3 TorPl_2_1 TorPl_2_2 RidGa_1_1"/>
    </person>
    <person id="pedestrian95" depart="382.00">
        <walk edges="MalPl_1_1 TorPl_1_4 TorPl_2_2 RidGa_1_1"/>
    </person>
    <person id="pedestrian96" depart="382.00">
        <walk edges="TorPl_1_4 BynPl_1_1 BynPl_1_2"/>
    </person>
    <person id="pedestrian97" depart="389.00">
        <walk edges="RidGa_1_1 TorPl_2_3 TorPl_1_1"/>
    </person>
    <person id="pedestrian98" depart="390.00">
        <walk edges="GorSq_1_1 BynPl_1_3 BynPl_1_2 BynPl_1_1 TorPl_1_4 TorPl_1_3"/>
    </person>
    <person id="pedestrian99" depart="390.00">
        <walk edges="GowSt_1_1 TorPl_1_4 BynPl_1_1 BynPl_1_2 BynPl_1_3"/>
    </person>
    <person id="pedestrian100" depart="391.00">
        <walk edges="BynPl_1_3 BynPl_2_1 GorSq_2_2"/>
    </person>
    <person id="pedestrian101" depart="394.00">
        <walk edges="BynPl_2_2 BynPl_2_3 TorPl_2_1 TorPl_2_2 RidGa_2_1"/>
    </person>
    <person id="pedestrian102" depart="394.00">
        <walk edges="HunSt_2_1 TorPl_1_1"/>
    </person>
    <person id="pedestrian103" depart="396.00">
        <walk edges="BynPl_2_1 BynPl_2_2 BynPl_2_3 TorPl_2_1 GowSt_2_1"/>
    </person>
    <person id="pedestrian104" depart="397.00">
        <walk edges="BynPl_2_2 BynPl_1_1 TorPl_1_4 TorPl_1_3 TorPl_1_2 HunSt_1_1"/>
    </person>
    <person id="pedestrian105" depart="400.00">
        <walk edges="BynPl_2_3 TorPl_2_1 TorPl_2_2 TorPl_2_3 HunSt_1_2"/>
    </person>
    <person id="pedestrian106" depart="403.00">
        <walk edges="TorPl_1_2 TorPl_1_3 TorPl_1_4 BynPl_1_1 BynPl_1_2 BynPl_1_3 GorSq_1_2 GorSq_1_3"/>
    </person>
    <person id="pedestrian107" depart="416.00">
        <walk edges="BynPl_1_2 BynPl_2_3 MalSt_1_1"/>
    </person>
    <person id="pedestrian108" depart="422.00">
        <walk edges="CheMe_2_1 TorPl_1_2 TorPl_2_3 RidGa_1_1"/>
    </person>
    <person id="pedestrian109" depart="424.00">
        <walk edges="MalPl_1_1 BynPl_1_1"/>
    </person>
    <person id="pedestrian110" depart="425.00">
        <walk edges="BynPl_2_3 TorPl_2_1 TorPl_2_2 RidGa_2_1"/>
    </person>
    <person id="pedestrian111" depart="443.00">
        <walk edges="GorSq_2_3 BynPl_1_3 BynPl_1_2 BynPl_1_1 TorPl_1_4 TorPl_1_3 TorPl_1_2 HunSt_2_2"/>
    </person>
    <person id="pedestrian112" depart="452.00">
        <walk edges="MalPl_2_1 BynPl_1_1 BynPl_1_2 BynPl_1_3"/>
    </person>
    <person id="pedestrian113" depart="452.00">
        <walk edges="TorPl_2_3 TorPl_2_2 TorPl_1_4"/>
    </person>
    <person id="pedestrian114" depart="461.00">
        <walk edges="HunSt_2_1 TorPl_1_2 TorPl_1_3 TorPl_1_4 BynPl_1_1 BynPl_1_2 BynPl_1_3 GorSq_1_1"/>
    </person>
    <person id="pedestrian115" depart="461.00">
        <walk edges="TorPl_1_3 GowSt_1_2"/>
    </person>
    <person id="pedestrian116" depart="462.00">
        <walk edges="BynPl_1_2 BynPl_2_3"/>
    </person>
    <person id="pedestrian117" depart="495.00">
        <walk edges="MalSt_1_1 BynPl_2_3 BynPl_2_2 BynPl_1_3 GorSq_2_3"/>
    </person>
    <person id="pedestrian118" depart="496.00">
        <walk edges="RidGa_1_1 TorPl_2_2 TorPl_1_4 MalPl_2_1"/>
    </person>
    <person id="pedestrian119" depart="497.00">
        <walk edges="BynPl_1_2 BynPl_1_1 TorPl_1_4 GowSt_2_1"/>
    </person>
    <person id="pedestrian120" depart="501.00">
        <walk edges="BynPl_2_1 GorSq_2_2 GorSq_2_1"/>
    </person>
    <person id="pedestrian121" depart="503.00">
        <walk edges="TorPl_1_4 TorPl_1_3 TorPl_1_2 TorPl_1_1"/>
    </person>
    <person id="pedestrian122" depart="508.00">
        <walk edges="BynPl_2_1 BynPl_2_2 BynPl_2_3 MalSt_2_1"/>
    </person>
    <person id="pedestrian123" depart="511.00">
        <walk edges="GorSq_2_1 GorSq_2_2 BynPl_2_1 BynPl_2_2 BynPl_1_1 TorPl_1_4 TorPl_1_3"/>
    </person>
    <person id="pedestrian124" depart="512.00">
        <walk edges="HunSt_1_2 TorPl_2_3 TorPl_2_2 TorPl_2_1 BynPl_2_3 BynPl_2_2 BynPl_2_1"/>
    </person>
    <person id="pedestrian125" depart="523.00">
        <walk edges="HunSt_1_2 TorPl_2_3 TorPl_2_2 TorPl_1_4 BynPl_1_1 BynPl_1_2 BynPl_1_3"/>
    </person>
    <person id="pedestrian126" depart="526.00">
        <walk edges="BynPl_1_2 BynPl_1_1 MalPl_1_1"/>
    </person>
    <person id="pedestrian127" depart="533.00">
        <walk edges="TorPl_2_1 MalSt_2_1"/>
    </person>
    <person id="pedestrian128" depart="534.00">
        <walk edges="TorPl_1_1 TorPl_2_3 RidGa_1_1"/>
    </person>
    <person id="pedestrian129" depart="537.00">
        <walk edges="GowSt_2_1 TorPl_1_4 MalPl_2_1"/>
    </person>
    <person id="pedestrian130" depart="540.00">
        <walk edges="GorSq_1_1 BynPl_1_3 BynPl_1_2 BynPl_1_1 MalPl_1_1"/>
    </person>
    <person id="pedestrian131" depart="543.00">
        <walk edges="GorSq_1_2 BynPl_1_3 BynPl_2_2 BynPl_2_3 MalSt_1_1"/>
    </person>
    <person id="pedestrian132" depart="544.00">
        <walk edges="HunSt_2_1 TorPl_2_3 TorPl_2_2 TorPl_2_1 BynPl_2_3 BynPl_2_2 BynPl_2_1 GorSq_2_2 GorSq_2_1"/>
    </person>
    <person id="pedestrian133" depart="545.00">
        <walk edges="RidGa_2_1 TorPl_2_2 TorPl_2_1 BynPl_2_3"/>
    </person>
    <person id="pedestrian134" depart="546.00">
        <walk edges="GorSq_2_2 BynPl_2_1 BynPl_2_2"/>
    </person>
    <person id="pedestrian135" depart="548.00">
        <walk edges="HunSt_2_1 TorPl_1_1"/>
    </person>
    <person id="pedestrian136" depart="548.00">
        <walk edges="MalSt_2_1 TorPl_2_1 GowSt_2_1"/>
    </person>
    <person id="pedestrian137" depart="552.00">
        <walk edges="GorSq_2_2 BynPl_2_1 BynPl_2_2 BynPl_2_3 MalSt_2_1"/>
    </person>
    <person id="pedestrian138" depart="563.00">
        <walk edges="MalPl_2_1 MalSt_2_1"/>
    </person>
    <person id="pedestrian139" depart="575.00">
        <walk edges="TorPl_2_3 TorPl_1_2 CheMe_1_1"/>
    </person>
    <person id="pedestrian140" depart="575.00">
        <walk edges="GowSt_1_2 GowSt_1_1"/>
    </person>
    <person id="pedestrian141" depart="580.00">
        <walk edges="TorPl_1_4 TorPl_1_3"/>
    </person>
    <person id="pedestrian142" depart="581.00">
        <walk edges="GowSt_2_2 TorPl_2_1"/>
    </person>
    <person id="pedestrian143" depart="584.00">
        <walk edges="BynPl_1_3 BynPl_1_2 BynPl_1_1 MalPl_2_1"/>
    </person>
    <person id="pedestrian144" depart="586.00">
        <walk edges="TorPl_1_1 HunSt_1_2"/>
    </person>
    <person id="pedestrian145" depart="589.00">
        <walk edges="TorPl_1_1 TorPl_1_2 TorPl_1_3 TorPl_1_4 BynPl_1_1 BynPl_1_2 BynPl_1_3"/>
    </person>
    <person id="pedestrian146" depart="589.00">
        <walk edges="GorSq_1_2 GorSq_2_3"/>
    </person>
    <person id="pedestrian147" depart="591.00">
        <walk edges="RidGa_2_1 TorPl_2_3 HunSt_1_2"/>
    </person>
    <person id="pedestrian148" depart="593.00">
        <walk edges="HunSt_1_2 TorPl_2_3 TorPl_2_2"/>
    </person>
    <person id="pedestrian149" depart="594.00">
        <walk edges="HunSt_2_1 TorPl_1_2 CheMe_1_1"/>
    </person>
    <person id="pedestrian150" depart="595.00">
        <walk edges="BynPl_1_3 BynPl_2_1 GorSq_2_2"/>
    </person>
    <person id="pedestrian151" depart="602.00">
        <walk edges="TorPl_1_1 TorPl_1_2 CheMe_2_1"/>
    </person>
    <person id="pedestrian152" depart="604.00">
        <walk edges="MalPl_1_1 BynPl_1_1 BynPl_1_2"/>
    </person>
    <person id="pedestrian153" depart="606.00">
        <walk edges="TorPl_2_4 TorPl_1_2 TorPl_1_3 TorPl_1_4 BynPl_1_1 BynPl_1_2 BynPl_1_3 GorSq_1_2 GorSq_1_3"/>
    </person>
    <person id="pedestrian154" depart="607.00">
        <walk edges="GorSq_1_1 BynPl_1_3 BynPl_1_2"/>
    </person>
    <person id="pedestrian155" depart="613.00">
        <walk edges="HunSt_2_1 TorPl_2_3 TorPl_2_2 GowSt_2_1"/>
    </person>
    <person id="pedestrian156" depart="617.00">
        <walk edges="TorPl_2_2 GowSt_1_1"/>
    </person>
    <person id="pedestrian157" depart="621.00">
        <walk edges="CheMe_2_1 TorPl_1_3 TorPl_1_4 BynPl_1_1 BynPl_1_2 BynPl_1_3 GorSq_1_2"/>
    </person>
    <person id="pedestrian158" depart="621.00">
        <walk edges="MalSt_2_1 TorPl_2_1 TorPl_2_2 RidGa_2_1"/>
    </person>
    <person id="pedestrian159" depart="622.00">
        <walk edges="MalSt_1_1 MalPl_1_1"/>
    </person>
    <person id="pedestrian160" depart="626.00">
        <walk edges="RidGa_2_1 TorPl_2_2 GowSt_2_1"/>
    </person>
    <person id="pedestrian161" depart="629.00">
        <walk edges="TorPl_2_2 TorPl_1_3 TorPl_1_2"/>
    </person>
    <person id="pedestrian162" depart="630.00">
        <walk edges="RidGa_1_1 TorPl_2_3 TorPl_2_4"/>
    </person>
    <person id="pedestrian163" depart="630.00">
        <walk edges="HunSt_1_1 HunSt_2_1"/>
    </person>
    <person id="pedestrian164" depart="630.00">
        <walk edges="HunSt_2_2 TorPl_2_3 RidGa_1_1"/>
    </person>
    <person id="pedestrian165" depart="631.00">
        <walk edges="MalPl_1_1 BynPl_1_1 BynPl_2_2 BynPl_2_1 GorSq_2_2"/>
    </person>
    <person id="pedestrian166" depart="636.00">
        <walk edges="TorPl_1_2 TorPl_2_3 RidGa_2_1"/>
    </person>
    <person id="pedestrian167" depart="637.00">
        <walk edges="RidGa_1_1 TorPl_2_2 TorPl_1_4 BynPl_1_1 BynPl_1_2 BynPl_1_3"/>
    </person>
    <person id="pedestrian168" depart="638.00">
        <walk edges="BynPl_1_3 GorSq_1_2 GorSq_1_3"/>
    </person>
    <person id="pedestrian169" depart="640.00">
        <walk edges="HunSt_2_1 TorPl_1_2 TorPl_1_3 TorPl_1_4 BynPl_1_1 BynPl_1_2"/>
    </person>
    <person id="pedestrian170" depart="645.00">
        <walk edges="BynPl_1_2 BynPl_1_1 TorPl_1_4 TorPl_1_3 TorPl_1_2 TorPl_1_1"/>
    </person>
    <person id="pedestrian171" depart="646.00">
        <walk edges="TorPl_1_2 HunSt_2_1"/>
    </person>
    <person id="pedestrian172" depart="647.00">
        <walk edges="GorSq_2_2 BynPl_2_1 BynPl_2_2 BynPl_2_3 TorPl_2_1 GowSt_1_2"/>
    </person>
    <person id="pedestrian173" depart="648.00">
        <walk edges="MalSt_2_1 TorPl_2_1 TorPl_1_3 CheMe_1_1"/>
    </person>
    <person id="pedestrian174" depart="649.00">
        <walk edges="BynPl_1_1 TorPl_1_4 TorPl_1_3"/>
    </person>
    <person id="pedestrian175" depart="650.00">
        <walk edges="RidGa_1_1 TorPl_2_3 HunSt_2_1"/>
    </person>
    <person id="pedestrian176" depart="650.00">
        <walk edges="GowSt_2_1"/>
    </person>
    <person id="pedestrian177" depart="651.00">
        <walk edges="BynPl_2_2 BynPl_2_3 TorPl_2_1 TorPl_2_2"/>
    </person>
    <person id="pedestrian178" depart="657.00">
        <walk edges="GorSq_2_3 BynPl_1_3 BynPl_1_2 BynPl_1_1 TorPl_1_4 TorPl_1_3 TorPl_1_2 HunSt_1_1"/>
    </person>
    <person id="pedestrian179" depart="663.00">
        <walk edges="TorPl_2_1 BynPl_2_3 BynPl_2_2 BynPl_1_3"/>
    </person>
    <person id="pedestrian180" depart="667.00">
        <walk edges="GorSq_1_3 GorSq_1_2 BynPl_1_3 BynPl_1_2 BynPl_1_1 TorPl_1_4 TorPl_1_3 TorPl_1_2 HunSt_1_1"/>
    </person>
    <person id="pedestrian181" depart="673.00">
        <walk edges="GowSt_1_2 TorPl_2_2 TorPl_2_3 HunSt_2_2"/>
    </person>
    <person id="pedestrian182" depart="680.00">
        <walk edges="MalPl_2_1 TorPl_1_4 TorPl_2_2 TorPl_2_3"/>
    </person>
    <person id="pedestrian183" depart="680.00">
        <walk edges="TorPl_1_2 TorPl_1_3 TorPl_1_4 BynPl_1_1 BynPl_2_2 BynPl_2_1"/>
    </person>
    <person id="pedestrian184" depart="686.00">
        <walk edges="GorSq_1_3 GorSq_1_2 BynPl_1_3 BynPl_1_2 BynPl_1_1 TorPl_1_4 GowSt_1_2"/>
    </person>
    <person id="pedestrian185" depart="688.00">
        <walk edges="BynPl_1_1 TorPl_1_4 TorPl_1_3 CheMe_2_1"/>
    </person>
    <person id="pedestrian186" depart="689.00">
        <walk edges="HunSt_2_1 TorPl_2_3 TorPl_2_2 TorPl_2_1 BynPl_2_3 BynPl_2_2"/>
    </person>
    <person id="pedestrian187" depart="689.00">
        <walk edges="TorPl_2_4 TorPl_1_2 TorPl_1_3 TorPl_1_4 BynPl_1_1 BynPl_1_2 BynPl_1_3 GorSq_1_1"/>
    </person>
    <person id="pedestrian188" depart="692.00">
        <walk edges="GowSt_1_1 GowSt_2_2"/>
    </person>
    <person id="pedestrian189" depart="693.00">
        <walk edges="GorSq_2_2 BynPl_2_1 BynPl_2_2 BynPl_1_1 MalPl_2_1"/>
    </person>
    <person id="pedestrian190" depart="695.00">
        <walk edges="HunSt_1_1 TorPl_1_2 TorPl_1_3 TorPl_1_4 BynPl_1_1"/>
    </person>
    <person id="pedestrian191" depart="703.00">
        <walk edges="GowSt_2_1 TorPl_1_4 BynPl_1_1 BynPl_1_2 BynPl_1_3 GorSq_1_2"/>
    </person>
    <person id="pedestrian192" depart="708.00">
        <walk edges="TorPl_2_1 GowSt_1_1"/>
    </person>
    <person id="pedestrian193" depart="710.00">
        <walk edges="GorSq_1_3 GorSq_1_2 BynPl_1_3 BynPl_1_2 BynPl_1_1 TorPl_1_4 TorPl_1_3 TorPl_1_2 HunSt_2_2"/>
    </person>
    <person id="pedestrian194" depart="713.00">
        <walk edges="MalSt_2_1 BynPl_2_3 BynPl_2_2 BynPl_1_3 GorSq_1_1"/>
    </person>
    <person id="pedestrian195" depart="720.00">
        <walk edges="MalPl_2_1 TorPl_1_4 TorPl_2_2 RidGa_2_1"/>
    </person>
    <person id="pedestrian196" depart="723.00">
        <walk edges="MalPl_2_1 TorPl_1_4 TorPl_1_3 TorPl_1_2 TorPl_1_1"/>
    </person>
    <person id="pedestrian197" depart="728.00">
        <walk edges="TorPl_1_1 TorPl_1_2 TorPl_1_3 TorPl_1_4 MalSt_1_1"/>
    </person>
    <person id="pedestrian198" depart="730.00">
        <walk edges="BynPl_2_1 BynPl_1_3 GorSq_2_3"/>
    </person>
    <person id="pedestrian199" depart="734.00">
        <walk edges="HunSt_1_1 TorPl_1_2 TorPl_1_3 TorPl_1_4 BynPl_1_1 BynPl_1_2"/>
    </person>
    <person id="pedestrian200" depart="735.00">
        <walk edges="RidGa_2_1 TorPl_2_2 TorPl_1_4 MalPl_1_1"/>
    </person>
    <person id="pedestrian201" depart="735.00">
        <walk edges="BynPl_2_2 BynPl_1_1 TorPl_1_4 TorPl_1_3 CheMe_1_1"/>
    </person>
    <person id="pedestrian202" depart="738.00">
        <walk edges="GowSt_2_2 TorPl_2_2"/>
    </person>
    <person id="pedestrian203" depart="739.00">
        <walk edges="BynPl_1_1 BynPl_2_2"/>
    </person>
    <person id="pedestrian204" depart="742.00">
        <walk edges="BynPl_2_1 BynPl_2_2 BynPl_2_3 TorPl_2_1 TorPl_2_2 TorPl_2_3 TorPl_2_4"/>
    </person>
    <person id="pedestrian205" depart="742.00">
        <walk edges="GorSq_2_3 BynPl_1_3 BynPl_1_2 BynPl_1_1 TorPl_1_4 TorPl_1_3 TorPl_1_2 HunSt_2_2"/>
    </person>
    <person id="pedestrian206" depart="745.00">
        <walk edges="GowSt_2_2 TorPl_1_4 BynPl_1_1 BynPl_1_2 BynPl_1_3 GorSq_1_2 GorSq_1_3"/>
    </person>
    <person id="pedestrian207" depart="747.00">
        <walk edges="GorSq_1_2 BynPl_1_3 BynPl_1_2 BynPl_1_1 TorPl_1_4 TorPl_1_3 TorPl_1_2"/>
    </person>
    <person id="pedestrian208" depart="747.00">
        <walk edges="RidGa_2_1 TorPl_2_2 TorPl_1_4 BynPl_1_1 BynPl_1_2 BynPl_1_3 GorSq_1_2 GorSq_1_3"/>
    </person>
    <person id="pedestrian209" depart="748.00">
        <walk edges="HunSt_2_1 HunSt_2_2"/>
    </person>
    <person id="pedestrian210" depart="749.00">
        <walk edges="TorPl_1_2 TorPl_2_3 TorPl_2_2"/>
    </person>
    <person id="pedestrian211" depart="751.00">
        <walk edges="BynPl_2_3 BynPl_1_2"/>
    </person>
    <person id="pedestrian212" depart="752.00">
        <walk edges="RidGa_2_1 TorPl_2_2 TorPl_1_4 BynPl_1_1 BynPl_1_2 BynPl_1_3 GorSq_1_1"/>
    </person>
    <person id="pedestrian213" depart="755.00">
        <walk edges="MalPl_1_1 TorPl_1_4 TorPl_2_2"/>
    </person>
    <person id="pedestrian214" depart="758.00">
        <walk edges="TorPl_1_4 BynPl_1_1 BynPl_1_2"/>
    </person>
    <person id="pedestrian215" depart="761.00">
        <walk edges="CheMe_2_1 TorPl_1_3 TorPl_1_4 BynPl_1_1 BynPl_1_2"/>
    </person>
    <person id="pedestrian216" depart="762.00">
        <walk edges="HunSt_2_1 TorPl_1_2 TorPl_1_3 GowSt_2_2"/>
    </person>
    <person id="pedestrian217" depart="762.00">
        <walk edges="TorPl_1_2 TorPl_1_3 TorPl_1_4"/>
    </person>
    <person id="pedestrian218" depart="765.00">
        <walk edges="GowSt_2_1 TorPl_2_2 RidGa_2_1"/>
    </person>
    <person id="pedestrian219" depart="767.00">
        <walk edges="TorPl_2_4 TorPl_1_2 TorPl_1_3 TorPl_1_4"/>
    </person>
    <person id="pedestrian220" depart="767.00">
        <walk edges="MalSt_1_1 TorPl_1_4 TorPl_1_3 CheMe_2_1"/>
    </person>
    <person id="pedestrian221" depart="771.00">
        <walk edges="TorPl_1_1 TorPl_1_2 TorPl_1_3 TorPl_1_4 BynPl_1_1 BynPl_1_2 BynPl_1_3"/>
    </person>
    <person id="pedestrian222" depart="791.00">
        <walk edges="GowSt_2_1 TorPl_1_4 MalPl_2_1"/>
    </person>
    <person id="pedestrian223" depart="801.00">