<?xml version="1.0" encoding="UTF-8"?>

<!-- generated on 2025-12-25 18:34:18.262082 by Eclipse SUMO randomTrips.py UNKNOWN
<configuration>
    <net-file value="../networks/demo/main.net.xml"/>
    <output-trip-file value="../routes/demo/eval/4/pedestrian.trips.xml"/>
    <route-file value="../routes/demo/eval/4/pedestrian.rou.xml"/>
    <pedestrians value="True"/>
    <prefix value="pedestrian"/>
    <seed value="4"/>
    <period value="5.0"/>
    <binomial value="100"/>
</configuration>
-->

<!-- generated on 2025-12-25T18:34:18.249496+00:00 by Eclipse SUMO duarouter 1.25.0
<duarouterConfiguration xmlns:xsi="http://www.w3.org/2001/XMLSchema-instance" xsi:noNamespaceSchemaLocation="http://sumo.dlr.de/xsd/duarouterConfiguration.xsd">

    <input>
        <net-file value="../networks/demo/main.net.xml"/>
        <route-files value="../routes/demo/eval/4/pedestrian.trips.xml"/>
    </input>

    <output>
        <output-file value="../routes/demo/eval/4/pedestrian.rou.xml"/>
        <alternatives-output value="NUL"/>
    </output>

    <time>
        <begin value="0"/>
        <end value="3600.0"/>
    </time>

    <report>
        <no-warnings value="true"/>
        <ignore-errors value="true"/>
        <no-step-log value="true"/>
    </report>

</duarouterConfiguration>
-->

<routes xmlns:xsi="http://www.w3.org/2001/XMLSchema-instance" xsi:noNamespaceSchemaLocation="http://sumo.dlr.de/xsd/routes_file.xsd">
    <person id="pedestrian0" depart="4.00">
        <walk edges="TorPl_1_3 TorPl_1_4 MalPl_1_1"/>
    </person>
    <person id="pedestrian1" depart="7.00">
        <walk edges="GorSq_2_3 BynPl_1_3 BynPl_1_2 BynPl_1_1 TorPl_1_4 TorPl_2_2 RidGa_2_1"/>
    </person>
    <person id="pedestrian2" depart="17.00">
        <walk edges="BynPl_2_1 BynPl_2_2 BynPl_1_1 MalPl_2_1"/>
    </person>
    <person id="pedestrian3" depart="20.00">
        <walk edges="GorSq_1_2 BynPl_1_3 BynPl_1_2 BynPl_1_1 TorPl_1_4 TorPl_1_3 TorPl_1_2 HunSt_2_1"/>
    </person>
    <person id="pedestrian4" depart="21.00">
        <walk edges="TorPl_2_3 TorPl_2_2 TorPl_2_1 BynPl_2_3 BynPl_2_2 BynPl_2_1 GorSq_2_2 GorSq_2_1"/>
    </person>
    <person id="pedestrian5" depart="23.00">
        <walk edges="GorSq_2_3 BynPl_1_3 BynPl_2_2 BynPl_2_3 MalSt_2_1"/>
    </person>
    <person id="pedestrian6" depart="27.00">
        <walk edges="BynPl_1_3 BynPl_1_2"/>
    </person>
    <person id="pedestrian7" depart="30.00">
        <walk edges="GorSq_2_3 BynPl_1_3 BynPl_1_2 BynPl_1_1 TorPl_1_4 TorPl_1_3 CheMe_1_1"/>
    </person>
    <person id="pedestrian8" depart="34.00">
        <walk edges="MalSt_1_1 TorPl_1_4 TorPl_1_3 CheMe_2_1"/>
    </person>
    <person id="pedestrian9" depart="42.00">
        <walk edges="TorPl_2_2 GowSt_2_1"/>
    </person>
    <person id="pedestrian10" depart="51.00">
        <walk edges="TorPl_2_4 TorPl_1_1"/>
    </person>
    <person id="pedestrian11" depart="57.00">
        <walk edges="RidGa_1_1 TorPl_2_2 TorPl_1_4 BynPl_1_1 BynPl_1_2 BynPl_1_3"/>
    </person>
    <person id="pedestrian12" depart="62.00">
        <walk edges="BynPl_2_3 TorPl_1_4"/>
    </person>
    <person id="pedestrian13" depart="63.00">
        <walk edges="GorSq_2_3 BynPl_1_3 BynPl_1_2 BynPl_1_1 TorPl_1_4 TorPl_1_3 CheMe_1_1"/>
    </person>
    <person id="pedestrian14" depart="78.00">
        <walk edges="GorSq_2_2 BynPl_2_1 BynPl_2_2 BynPl_1_1 TorPl_1_4 TorPl_1_3 TorPl_1_2 TorPl_1_1"/>
    </person>
    <person id="pedestrian15" depart="80.00">
        <walk edges="GorSq_1_2 BynPl_1_3 BynPl_1_2 BynPl_1_1 TorPl_1_4 GowSt_1_1"/>
    </person>
    <person id="pedestrian16" depart="81.00">
        <walk edges="GorSq_1_2 BynPl_1_3 BynPl_1_2 BynPl_1_1"/>
    </person>
    <person id="pedestrian17" depart="84.00">
        <walk edges="MalPl_1_1 TorPl_1_4 TorPl_1_3 TorPl_1_2 HunSt_1_2"/>
    </person>
    <person id="pedestrian18" depart="87.00">
        <walk edges="TorPl_2_2 TorPl_2_1 BynPl_2_3"/>
    </person>
    <person id="pedestrian19" depart="88.00">
        <walk edges="CheMe_1_1 TorPl_1_3 GowSt_2_2"/>
    </person>
    <person id="pedestrian20" depart="95.00">
        <walk edges="TorPl_1_2 TorPl_1_3 TorPl_1_4 BynPl_1_1 BynPl_2_2 BynPl_2_1 GorSq_2_2 GorSq_2_1"/>
    </person>
    <person id="pedestrian21" depart="104.00">
        <walk edges="TorPl_2_3 TorPl_2_2 TorPl_1_4 BynPl_1_1 BynPl_1_2 BynPl_1_3 GorSq_1_2 GorSq_1_3"/>
    </person>
    <person id="pedestrian22" depart="110.00">
        <walk edges="MalSt_2_1 TorPl_2_1 TorPl_1_3 CheMe_2_1"/>
    </person>
    <person id="pedestrian23" depart="111.00">
        <walk edges="GorSq_1_3 GorSq_1_2 BynPl_1_3 BynPl_1_2 BynPl_1_1 MalPl_2_1"/>
    </person>
    <person id="pedestrian24" depart="118.00">
        <walk edges="TorPl_2_2 TorPl_1_4 MalPl_1_1"/>
    </person>
    <person id="pedestrian25" depart="118.00">
        <walk edges="BynPl_2_3 BynPl_2_2 BynPl_1_3 GorSq_2_3"/>
    </person>
    <person id="pedestrian26" depart="122.00">
        <walk edges="BynPl_1_3 BynPl_2_1"/>
    </person>
    <person id="pedestrian27" depart="128.00">
        <walk edges="GowSt_2_1 TorPl_2_2 RidGa_1_1"/>
    </person>
    <person id="pedestrian28" depart="129.00">
        <walk edges="TorPl_1_2 TorPl_1_3 TorPl_1_4"/>
    </person>
    <person id="pedestrian29" depart="132.00">
        <walk edges="GorSq_2_3 BynPl_1_3 BynPl_1_2 BynPl_1_1 TorPl_1_4 TorPl_2_2"/>
    </person>
    <person id="pedestrian30" depart="135.00">
        <walk edges="GorSq_1_1 BynPl_1_3 BynPl_1_2 BynPl_1_1 TorPl_1_4"/>
    </person>
    <person id="pedestrian31" depart="137.00">
        <walk edges="MalSt_2_1 TorPl_2_1 TorPl_2_2 TorPl_2_3"/>
    </person>
    <person id="pedestrian32" depart="138.00">
        <walk edges="TorPl_2_1 TorPl_2_2 TorPl_2_3 HunSt_1_1"/>
    </person>
    <person id="pedestrian33" depart="141.00">
        <walk edges="BynPl_2_1 BynPl_2_2 BynPl_1_1 TorPl_1_4 TorPl_1_3 TorPl_1_2 TorPl_1_1"/>
    </person>
    <person id="pedestrian34" depart="159.00">
        <walk edges="MalSt_2_1 BynPl_2_3 BynPl_2_2 BynPl_1_3 GorSq_1_1"/>
    </person>
    <person id="pedestrian35" depart="165.00">
        <walk edges="HunSt_2_1 TorPl_2_3 TorPl_2_2"/>
    </person>
    <person id="pedestrian36" depart="165.00">
        <walk edges="GowSt_1_2 TorPl_1_4 BynPl_1_1 BynPl_1_2 BynPl_1_3 GorSq_1_1"/>
    </person>
    <person id="pedestrian37" depart="169.00">
        <walk edges="MalSt_2_1 TorPl_2_1 GowSt_1_2"/>
    </person>
    <person id="pedestrian38" depart="170.00">
        <walk edges="CheMe_2_1 TorPl_1_3"/>
    </person>
    <person id="pedestrian39" depart="171.00">
        <walk edges="TorPl_2_4 TorPl_1_2 CheMe_2_1"/>
    </person>
    <person id="pedestrian40" depart="182.00">
        <walk edges="HunSt_1_1 TorPl_1_2 TorPl_1_3 TorPl_1_4 MalPl_1_1"/>
    </person>
    <person id="pedestrian41" depart="186.00">
        <walk edges="TorPl_2_4 TorPl_1_2 TorPl_1_3 TorPl_1_4 BynPl_1_1 BynPl_1_2 BynPl_1_3"/>
    </person>
    <person id="pedestrian42" depart="188.00">
        <walk edges="GowSt_1_1 TorPl_1_4 BynPl_1_1"/>
    </person>
    <person id="pedestrian43" depart="191.00">
        <walk edges="MalPl_1_1 BynPl_1_1 BynPl_1_2 BynPl_1_3"/>
    </person>
    <person id="pedestrian44" depart="210.00">
        <walk edges="CheMe_1_1 TorPl_1_3 TorPl_1_4 BynPl_1_1 BynPl_1_2 BynPl_1_3 GorSq_1_2"/>
    </person>
    <person id="pedestrian45" depart="213.00">
        <walk edges="BynPl_2_2 BynPl_2_3"/>
    </person>
    <person id="pedestrian46" depart="224.00">
        <walk edges="HunSt_2_1 TorPl_1_2 TorPl_1_3 TorPl_1_4 BynPl_1_1 BynPl_1_2 BynPl_1_3"/>
    </person>
    <person id="pedestrian47" depart="230.00">
        <walk edges="BynPl_2_3 TorPl_2_1 TorPl_2_2 TorPl_2_3"/>
    </person>
    <person id="pedestrian48" depart="234.00">
        <walk edges="GorSq_1_2 BynPl_1_3 BynPl_1_2 BynPl_1_1 TorPl_1_4 GowSt_1_1"/>
    </person>
    <person id="pedestrian49" depart="238.00">
        <walk edges="TorPl_1_3 TorPl_1_4 BynPl_1_1 BynPl_1_2"/>
    </person>
    <person id="pedestrian50" depart="239.00">
        <walk edges="TorPl_2_3 TorPl_1_2"/>
    </person>
    <person id="pedestrian51" depart="242.00">
        <walk edges="GowSt_1_2 TorPl_2_1"/>
    </person>
    <person id="pedestrian52" depart="249.00">
        <walk edges="BynPl_2_1 BynPl_1_3"/>
    </person>
    <person id="pedestrian53" depart="250.00">
        <walk edges="CheMe_2_1 TorPl_1_3 TorPl_1_4 MalSt_1_1"/>
    </person>
    <person id="pedestrian54" depart="251.00">
        <walk edges="RidGa_2_1 TorPl_2_3 TorPl_2_4"/>
    </person>
    <person id="pedestrian55" depart="259.00">
        <walk edges="MalSt_2_1 TorPl_2_1 TorPl_2_2 TorPl_2_3"/>
    </person>
    <person id="pedestrian56" depart="259.00">
        <walk edges="BynPl_1_1 BynPl_2_3"/>
    </person>
    <person id="pedestrian57" depart="260.00">
        <walk edges="GorSq_1_2 BynPl_1_3 BynPl_1_2 BynPl_1_1 MalPl_1_1"/>
    </person>
    <person id="pedestrian58" depart="261.00">
        <walk edges="BynPl_1_3 BynPl_1_2 BynPl_1_1 TorPl_1_4 TorPl_1_3 TorPl_1_2"/>
    </person>
    <person id="pedestrian59" depart="263.00">
        <walk edges="GorSq_2_2 GorSq_1_2 GorSq_2_3"/>
    </person>
    <person id="pedestrian60" depart="268.00">
        <walk edges="GorSq_1_3 GorSq_2_1"/>
    </person>
    <person id="pedestrian61" depart="271.00">
        <walk edges="GorSq_1_1 BynPl_1_3 BynPl_1_2 BynPl_1_1 TorPl_1_4 TorPl_2_2"/>
    </person>
    <person id="pedestrian62" depart="272.00">
        <walk edges="CheMe_1_1 TorPl_1_3 TorPl_1_4 BynPl_1_1 BynPl_1_2"/>
    </person>
    <person id="pedestrian63" depart="281.00">
        <walk edges="TorPl_1_1 TorPl_1_2 TorPl_1_3 TorPl_1_4 BynPl_1_1 BynPl_1_2 BynPl_1_3 GorSq_1_2"/>
    </person>
    <person id="pedestrian64" depart="286.00">
        <walk edges="BynPl_1_3 BynPl_2_1"/>
    </person>
    <person id="pedestrian65" depart="300.00">
        <walk edges="BynPl_1_2"/>
    </person>
    <person id="pedestrian66" depart="301.00">
        <walk edges="TorPl_1_4 BynPl_1_1"/>
    </person>
    <person id="pedestrian67" depart="301.00">
        <walk edges="GorSq_1_1"/>
    </person>
    <person id="pedestrian68" depart="302.00">
        <walk edges="TorPl_2_2 TorPl_1_4 BynPl_1_1 BynPl_1_2 BynPl_1_3 GorSq_1_1"/>
    </person>
    <person id="pedestrian69" depart="309.00">
        <walk edges="TorPl_2_4 TorPl_2_3 TorPl_2_2 TorPl_2_1 BynPl_2_3 BynPl_2_2 BynPl_2_1 GorSq_2_2"/>
    </person>
    <person id="pedestrian70" depart="311.00">
        <walk edges="TorPl_1_1 TorPl_1_2 CheMe_2_1"/>
    </person>
    <person id="pedestrian71" depart="312.00">
        <walk edges="GowSt_1_2 TorPl_2_1 MalSt_1_1"/>
    </person>
    <person id="pedestrian72" depart="318.00">
        <walk edges="RidGa_1_1 TorPl_2_2 GowSt_1_2"/>
    </person>
    <person id="pedestrian73" depart="319.00">
        <walk edges="GowSt_1_1 TorPl_1_4 BynPl_1_1 BynPl_1_2 BynPl_1_3 GorSq_2_3"/>
    </person>
    <person id="pedestrian74" depart="319.00">
        <walk edges="BynPl_1_2 BynPl_2_2 BynPl_2_1"/>
    </person>
    <person id="pedestrian75" depart="322.00">
        <walk edges="HunSt_2_2 HunSt_1_2"/>
    </person>
    <person id="pedestrian76" depart="328.00">
        <walk edges="BynPl_2_1 BynPl_2_2 BynPl_2_3 TorPl_2_1 TorPl_2_2 TorPl_2_3 HunSt_2_1"/>
    </person>
    <person id="pedestrian77" depart="329.00">
        <walk edges="TorPl_1_2 TorPl_1_3 TorPl_1_4 BynPl_2_3"/>
    </person>
    <person id="pedestrian78" depart="334.00">
        <walk edges="HunSt_2_2 TorPl_2_3 TorPl_2_2 TorPl_2_1"/>
    </person>
    <person id="pedestrian79" depart="345.00">
        <walk edges="GorSq_1_2 BynPl_1_3 BynPl_1_2 BynPl_1_1 TorPl_1_4 TorPl_2_2 RidGa_1_1"/>
    </person>
    <person id="pedestrian80" depart="351.00">
        <walk edges="GorSq_2_2 BynPl_2_1 BynPl_2_2 BynPl_2_3 TorPl_2_1 GowSt_2_1"/>
    </person>
    <person id="pedestrian81" depart="352.00">
        <walk edges="RidGa_2_1 TorPl_2_3 TorPl_1_2 CheMe_2_1"/>
    </person>
    <person id="pedestrian82" depart="373.00">
        <walk edges="GorSq_1_3 GorSq_1_2 BynPl_1_3 BynPl_1_2 BynPl_1_1 TorPl_1_4 TorPl_1_3 TorPl_1_2 HunSt_1_2"/>
    </person>
    <person id="pedestrian83" depart="378.00">
        <walk edges="TorPl_1_4 GowSt_1_1"/>
    </person>
    <person id="pedestrian84" depart="380.00">
        <walk edges="HunSt_2_2 TorPl_1_2 TorPl_1_3 TorPl_1_4 BynPl_1_1 BynPl_1_2 BynPl_1_3 GorSq_2_3"/>
    </person>
    <person id="pedestrian85" depart="381.00">
        <walk edges="TorPl_2_2 TorPl_2_1 BynPl_2_3 BynPl_2_2"/>
    </person>
    <person id="pedestrian86" depart="382.00">
        <walk edges="GorSq_1_1 BynPl_1_3 BynPl_1_2 BynPl_1_1 MalPl_2_1"/>
    </person>
    <person id="pedestrian87" depart="385.00">
        <walk edges="BynPl_2_3 BynPl_2_2 BynPl_1_3 GorSq_1_1"/>
    </person>
    <person id="pedestrian88" depart="392.00">
        <walk edges="GowSt_1_1 TorPl_1_4 BynPl_1_1"/>
    </person>
    <person id="pedestrian89" depart="396.00">
        <walk edges="MalPl_2_1 TorPl_1_4 TorPl_1_3 TorPl_1_2 HunSt_1_1"/>
    </person>
    <person id="pedestrian90" depart="399.00">
        <walk edges="GowSt_2_1 TorPl_1_3 TorPl_1_2"/>
    </person>
    <person id="pedestrian91" depart="413.00">
        <walk edges="MalSt_1_1 TorPl_1_4 TorPl_1_3 TorPl_1_2"/>
    </person>
    <person id="pedestrian92" depart="424.00">
        <walk edges="GowSt_2_1 TorPl_2_2 TorPl_2_3 HunSt_1_1"/>
    </person>
    <person id="pedestrian93" depart="433.00">
        <walk edges="TorPl_1_3 TorPl_1_2 HunSt_2_2"/>
    </person>
    <person id="pedestrian94" depart="433.00">
        <walk edges="BynPl_1_1 TorPl_1_4 TorPl_1_3"/>
    </person>
    <person id="pedestrian95" depart="440.00">
        <walk edges="GowSt_2_1 TorPl_1_4 BynPl_1_1 BynPl_1_2"/>
    </person>
    <person id="pedestrian96" depart="441.00">
        <walk edges="HunSt_2_1 TorPl_1_1"/>
    </person>
    <person id="pedestrian97" depart="445.00">
        <walk edges="BynPl_1_2 BynPl_1_1 TorPl_1_4 GowSt_2_2"/>
    </person>
    <person id="pedestrian98" depart="446.00">
        <walk edges="MalPl_1_1 TorPl_1_4 TorPl_1_3 TorPl_1_2 TorPl_2_4"/>
    </person>
    <person id="pedestrian99" depart="460.00">
        <walk edges="MalSt_2_1 TorPl_2_1 TorPl_2_2 RidGa_2_1"/>
    </person>
    <person id="pedestrian100" depart="461.00">
        <walk edges="RidGa_1_1 TorPl_2_2 TorPl_1_4 BynPl_1_1 BynPl_1_2"/>
    </person>
    <person id="pedestrian101" depart="461.00">
        <walk edges="GorSq_2_3 BynPl_1_3 BynPl_2_1"/>
    </person>
    <person id="pedestrian102" depart="464.00">
        <walk edges="BynPl_1_1 TorPl_1_4 GowSt_2_1"/>
    </person>
    <person id="pedestrian103" depart="465.00">
        <walk edges="GowSt_2_1 TorPl_1_3 TorPl_1_2"/>
    </person>
    <person id="pedestrian104" depart="469.00">
        <walk edges="MalPl_2_1 TorPl_1_4 GowSt_1_2"/>
    </person>
    <person id="pedestrian105" depart="470.00">
        <walk edges="BynPl_1_2 BynPl_1_1 TorPl_1_4 TorPl_2_2 RidGa_2_1"/>
    </person>
    <person id="pedestrian106" depart="471.00">
        <walk edges="BynPl_2_3 TorPl_1_4 GowSt_2_2"/>
    </person>
    <person id="pedestrian107" depart="474.00">
        <walk edges="HunSt_2_2 TorPl_1_2 TorPl_1_3 TorPl_1_4"/>
    </person>
    <person id="pedestrian108" depart="477.00">
        <walk edges="GowSt_1_1 TorPl_2_2 RidGa_2_1"/>
    </person>
    <person id="pedestrian109" depart="480.00">
        <walk edges="HunSt_2_1 TorPl_1_2 TorPl_1_3 GowSt_1_1"/>
    </person>
    <person id="pedestrian110" depart="496.00">
        <walk edges="MalPl_2_1 BynPl_1_1 BynPl_1_2"/>
    </person>
    <person id="pedestrian111" depart="501.00">
        <walk edges="HunSt_2_2 TorPl_1_2 TorPl_1_3 TorPl_1_4 BynPl_1_1 BynPl_2_2 BynPl_2_1 GorSq_2_2"/>
    </person>
    <person id="pedestrian112" depart="504.00">
        <walk edges="TorPl_2_1 TorPl_2_2 TorPl_2_3"/>
    </person>
    <person id="pedestrian113" depart="508.00">
        <walk edges="CheMe_2_1 TorPl_1_3 TorPl_1_4 BynPl_2_3"/>
    </person>
    <person id="pedestrian114" depart="516.00">
        <walk edges="HunSt_1_2 TorPl_2_3 RidGa_1_1"/>
    </person>
    <person id="pedestrian115" depart="523.00">
        <walk edges="GorSq_1_2 BynPl_1_3 BynPl_2_2"/>
    </person>
    <person id="pedestrian116" depart="523.00">
        <walk edges="RidGa_2_1 TorPl_2_2 GowSt_2_2"/>
    </person>
    <person id="pedestrian117" depart="532.00">
        <walk edges="GowSt_1_2 TorPl_1_3 TorPl_1_2"/>
    </person>
    <person id="pedestrian118" depart="536.00">
        <walk edges="GorSq_1_1 BynPl_1_3 BynPl_2_1 GorSq_2_2"/>
    </person>
    <person id="pedestrian119" depart="538.00">
        <walk edges="HunSt_1_2 TorPl_1_2 TorPl_1_3 TorPl_1_4"/>
    </person>
    <person id="pedestrian120" depart="538.00">
        <walk edges="GowSt_2_1 TorPl_2_2"/>
    </person>
    <person id="pedestrian121" depart="549.00">
        <walk edges="TorPl_1_1 TorPl_1_2 TorPl_1_3 TorPl_1_4 BynPl_1_1 BynPl_1_2 BynPl_1_3 GorSq_1_2 GorSq_1_3"/>
    </person>
    <person id="pedestrian122" depart="549.00">
        <walk edges="TorPl_2_4 TorPl_1_2 TorPl_1_3 TorPl_1_4 BynPl_1_1 BynPl_1_2 BynPl_1_3 GorSq_1_2"/>
    </person>
    <person id="pedestrian123" depart="550.00">
        <walk edges="MalPl_1_1 TorPl_1_4 GowSt_2_1"/>
    </person>
    <person id="pedestrian124" depart="555.00">
        <walk edges="GorSq_2_1 GorSq_2_2 BynPl_2_1 BynPl_2_2 BynPl_2_3 TorPl_2_1 TorPl_2_2 TorPl_2_3 HunSt_1_2"/>
    </person>
    <person id="pedestrian125" depart="565.00">
        <walk edges="GorSq_2_2 BynPl_2_1 BynPl_2_2"/>
    </person>
    <person id="pedestrian126" depart="572.00">
        <walk edges="HunSt_1_1 TorPl_2_3 TorPl_2_2 TorPl_2_1"/>
    </person>
    <person id="pedestrian127" depart="574.00">
        <walk edges="BynPl_1_3 GorSq_1_2 GorSq_1_3"/>
    </person>
    <person id="pedestrian128" depart="578.00">
        <walk edges="GowSt_2_2 TorPl_1_4 BynPl_2_3"/>
    </person>
    <person id="pedestrian129" depart="583.00">
        <walk edges="TorPl_2_1 MalPl_1_1"/>
    </person>
    <person id="pedestrian130" depart="586.00">
        <walk edges="TorPl_1_3 TorPl_2_1"/>
    </person>
    <person id="pedestrian131" depart="592.00">
        <walk edges="HunSt_1_2 TorPl_2_3 TorPl_2_2 TorPl_2_1"/>
    </person>
    <person id="pedestrian132" depart="593.00">
        <walk edges="TorPl_2_2 GowSt_1_2"/>
    </person>
    <person id="pedestrian133" depart="595.00">
        <walk edges="CheMe_2_1 TorPl_1_3 TorPl_1_4 BynPl_1_1 BynPl_1_2 BynPl_1_3"/>
    </person>
    <person id="pedestrian134" depart="613.00">
        <walk edges="GowSt_2_2"/>
    </person>
    <person id="pedestrian135" depart="620.00">
        <walk edges="BynPl_1_3 BynPl_2_2 BynPl_2_3"/>
    </person>
    <person id="pedestrian136" depart="622.00">
        <walk edges="TorPl_1_2 TorPl_1_3 TorPl_1_4 BynPl_1_1 BynPl_1_2 BynPl_1_3 GorSq_2_3"/>
    </person>
    <person id="pedestrian137" depart="626.00">
        <walk edges="MalPl_1_1 TorPl_1_4 TorPl_1_3 TorPl_1_2 TorPl_2_4"/>
    </person>
    <person id="pedestrian138" depart="634.00">
        <walk edges="TorPl_1_1 TorPl_1_2 TorPl_1_3 TorPl_1_4 BynPl_1_1 BynPl_1_2 BynPl_1_3 GorSq_1_2 GorSq_1_3"/>
    </person>
    <person id="pedestrian139" depart="655.00">
        <walk edges="HunSt_2_1 TorPl_1_2 TorPl_1_3 TorPl_1_4 MalPl_1_1"/>
    </person>
    <person id="pedestrian140" depart="657.00">
        <walk edges="GorSq_1_3 GorSq_1_2 BynPl_1_3 BynPl_1_2 BynPl_1_1 TorPl_1_4 TorPl_2_2 RidGa_2_1"/>
    </person>
    <person id="pedestrian141" depart="658.00">
        <walk edges="TorPl_2_3 TorPl_1_2 CheMe_1_1"/>
    </person>
    <person id="pedestrian142" depart="663.00">
        <walk edges="BynPl_1_2 BynPl_1_1 TorPl_1_4 TorPl_2_2"/>
    </person>
    <person id="pedestrian143" depart="663.00">
        <walk edges="HunSt_2_2 TorPl_1_2 TorPl_1_3 TorPl_1_4 BynPl_1_1 BynPl_1_2 BynPl_1_3 GorSq_1_2"/>
    </person>
    <person id="pedestrian144" depart="674.00">
        <walk edges="HunSt_2_1 TorPl_2_3 TorPl_2_2 TorPl_2_1 BynPl_2_3 BynPl_2_2"/>
    </person>
    <person id="pedestrian145" depart="701.00">
        <walk edges="GorSq_2_3 BynPl_1_3 BynPl_2_1 GorSq_2_2"/>
    </person>
    <person id="pedestrian146" depart="713.00">
        <walk edges="TorPl_1_1 TorPl_1_2 TorPl_1_3 GowSt_2_2"/>
    </person>
    <person id="pedestrian147" depart="725.00">
        <walk edges="GorSq_2_1 GorSq_2_2 BynPl_2_1 BynPl_2_2 BynPl_1_1 TorPl_1_4 TorPl_1_3"/>
    </person>
    <person id="pedestrian148" depart="726.00">
        <walk edges="TorPl_2_2 TorPl_1_4 BynPl_1_1 BynPl_1_2 BynPl_1_3"/>
    </person>
    <person id="pedestrian149" depart="732.00">
        <walk edges="TorPl_2_2 TorPl_1_4 BynPl_1_1 BynPl_1_2 BynPl_1_3 GorSq_2_3"/>
    </person>
    <person id="pedestrian150" depart="734.00">
        <walk edges="HunSt_1_1 TorPl_2_3 RidGa_1_1"/>
    </person>
    <person id="pedestrian151" depart="741.00">
        <walk edges="GorSq_2_2 BynPl_2_1 BynPl_2_2 BynPl_2_3"/>
    </person>
    <person id="pedestrian152" depart="743.00">
        <walk edges="GowSt_2_1 TorPl_2_2 TorPl_2_3 HunSt_1_1"/>
    </person>
    <person id="pedestrian153" depart="749.00">
        <walk edges="GowSt_2_1 TorPl_1_4 MalPl_1_1"/>
    </person>
    <person id="pedestrian154" depart="755.00">
        <walk edges="MalSt_2_1 TorPl_2_1 TorPl_1_3 TorPl_1_2"/>
    </person>
    <person id="pedestrian155" depart="756.00">
        <walk edges="GorSq_1_3 GorSq_1_2 BynPl_1_3 BynPl_2_2 BynPl_2_3 TorPl_2_1"/>
    </person>
    <person id="pedestrian156" depart="759.00">
        <walk edges="BynPl_2_2 BynPl_2_3 MalSt_2_1"/>
    </person>
    <person id="pedestrian157" depart="761.00">
        <walk edges="HunSt_1_2 HunSt_2_1"/>
    </person>
    <person id="pedestrian158" depart="775.00">
        <walk edges="HunSt_2_1 TorPl_2_3 TorPl_2_2 TorPl_2_1"/>
    </person>
    <person id="pedestrian159" depart="779.00">
        <walk edges="MalPl_1_1 TorPl_1_4"/>
    </person>
    <person id="pedestrian160" depart="787.00">
        <walk edges="RidGa_2_1 TorPl_2_2 GowSt_1_1"/>
    </person>
    <person id="pedestrian161" depart="790.00">
        <walk edges="GorSq_2_1 GorSq_2_2 BynPl_2_1 BynPl_2_2 BynPl_1_1 TorPl_1_4"/>
    </person>
    <person id="pedestrian162" depart="793.00">
        <walk edges="GorSq_2_3 BynPl_1_3 BynPl_1_2 BynPl_1_1 TorPl_1_4 TorPl_2_2 RidGa_1_1"/>
    </person>
    <person id="pedestrian163" depart="817.00">
        <walk edges="HunSt_1_1"/>
    </person>
    <person id="pedestrian164" depart="818.00">
        <walk edges="RidGa_1_1 TorPl_2_2 TorPl_1_4 BynPl_1_1 BynPl_1_2 BynPl_1_3 GorSq_1_2"/>
    </person>
    <person id="pedestrian165" depart="842.00">
        <walk edges="CheMe_2_1 TorPl_1_2 TorPl_1_1"/>
    </person>
    <person id="pedestrian166" depart="843.00">
        <walk edges="GorSq_1_2 GorSq_2_1"/>
    </person>
    <person id="pedestrian167" depart="850.00">
        <walk edges="TorPl_1_2 TorPl_1_3 TorPl_1_4 BynPl_1_1 BynPl_1_2 BynPl_1_3"/>
    </person>
    <person id="pedestrian168" depart="852.00">
        <walk edges="MalSt_2_1 TorPl_2_1 TorPl_1_3 TorPl_1_2"/>
    </person>
    <person id="pedestrian169" depart="853.00">
        <walk edges="TorPl_1_4 GowSt_1_2"/>
    </person>
    <person id="pedestrian170" depart="856.00">
        <walk edges="BynPl_1_1 BynPl_1_2 BynPl_1_3 GorSq_1_1"/>
    </person>
    <person id="pedestrian171" depart="860.00">
        <walk edges="TorPl_1_2 HunSt_2_1"/>
    </person>
    <person id="pedestrian172" depart="863.00">
        <walk edges="HunSt_2_2 TorPl_2_3 RidGa_2_1"/>
    </person>
    <person id="pedestrian173" depart="865.00">
        <walk edges="TorPl_2_3 TorPl_2_2 TorPl_2_1 BynPl_2_3 BynPl_2_2 BynPl_2_1 GorSq_2_2 GorSq_2_1"/>
    </person>
    <person id="pedestrian174" depart="871.00">
        <walk edges="GorSq_1_2 BynPl_1_3"/>
    </person>
    <person id="pedestrian175" depart="877.00">
        <walk edges="RidGa_2_1 TorPl_2_2 TorPl_1_4 BynPl_1_1"/>
    </person>
    <person id="pedestrian176" depart="887.00">
        <walk edges="TorPl_2_3 TorPl_2_2 TorPl_1_4 BynPl_1_1 BynPl_1_2 BynPl_1_3 GorSq_1_1"/>
    </person>
    <person id="pedestrian177" depart="893.00">
        <walk edges="HunSt_2_2 TorPl_1_2 TorPl_1_3 TorPl_1_4 BynPl_1_1 BynPl_1_2 BynPl_1_3"/>
    </person>
    <person id="pedestrian178" depart="895.00">
        <walk edges="HunSt_2_1 HunSt_1_2"/>
    </person>
    <person id="pedestrian179" depart="897.00">
        <walk edges="BynPl_2_3 BynPl_1_1"/>
    </person>
    <person id="pedestrian180" depart="898.00">
        <walk edges="GorSq_1_3 GorSq_2_2"/>
    </person>
    <person id="pedestrian181" depart="903.00">
        <walk edges="RidGa_1_1 TorPl_2_2"/>
    </person>
    <person id="pedestrian182" depart="906.00">
        <walk edges="TorPl_2_2 TorPl_2_1 BynPl_2_3 BynPl_2_2"/>
    </person>
    <person id="pedestrian183" depart="915.00">
        <walk edges="GowSt_1_2 TorPl_2_2 TorPl_2_3 HunSt_1_1"/>
    </person>
    <person id="pedestrian184" depart="940.00">
        <walk edges="BynPl_2_2 BynPl_2_1 GorSq_2_2 GorSq_2_1"/>
    </person>
    <person id="pedestrian185" depart="941.00">
        <walk edges="GorSq_1_1 BynPl_1_3 BynPl_1_2 BynPl_1_1 TorPl_1_4 TorPl_2_2"/>
    </person>
    <person id="pedestrian186" depart="941.00">
        <walk edges="HunSt_1_2 TorPl_1_2 TorPl_1_3 TorPl_1_4 MalPl_1_1"/>
    </person>
    <person id="pedestrian187" depart="942.00">
        <walk edges="BynPl_2_1 BynPl_2_2 BynPl_2_3 TorPl_2_1 TorPl_2_2 TorPl_2_3 HunSt_2_1"/>
    </person>
    <person id="pedestrian188" depart="942.00">
        <walk edges="TorPl_1_4 TorPl_2_1 MalSt_2_1"/>
    </person>
    <person id="pedestrian189" depart="949.00">
        <walk edges="MalSt_2_1 BynPl_2_3 BynPl_2_2 BynPl_1_3 GorSq_2_3"/>
    </person>
    <person id="pedestrian190" depart="954.00">
        <walk edges="TorPl_2_1 TorPl_2_2"/>
    </person>
    <person id="pedestrian191" depart="955.00">
        <walk edges="TorPl_1_2 TorPl_1_3 GowSt_2_1"/>
    </person>
    <person id="pedestrian192" depart="958.00">
        <walk edges="RidGa_1_1 TorPl_2_2 TorPl_2_1 BynPl_2_3 BynPl_2_2 BynPl_2_1 GorSq_2_2"/>
    </person>
    <person id="pedestrian193" depart="963.00">
        <walk edges="TorPl_2_3 TorPl_2_2 TorPl_1_4 BynPl_1_1 BynPl_1_2 BynPl_1_3 GorSq_1_2 GorSq_1_3"/>
    </person>
    <person id="pedestrian194" depart="964.00">
        <walk edges="MalSt_1_1 TorPl_1_4 TorPl_1_3 TorPl_1_2 HunSt_1_1"/>
    </person>
    <person id="pedestrian195" depart="968.00">
        <walk edges="GorSq_2_1 GorSq_2_2 BynPl_2_1 BynPl_2_2"/>
    </person>
    <person id="pedestrian196" depart="970.00">
        <walk edges="BynPl_2_1 BynPl_1_2"/>
    </person>
    <person id="pedestrian197" depart="980.00">
        <walk edges="BynPl_1_3 BynPl_1_2 BynPl_1_1 TorPl_1_4 GowSt_1_2"/>
    </person>
    <person id="pedestrian198" depart="982.00">
        <walk edges="MalPl_2_1 TorPl_1_4 TorPl_1_3 TorPl_1_2 TorPl_2_4"/>
    </person>
    <person id="pedestrian199" depart="988.00">
        <walk edges="CheMe_1_1 TorPl_1_2 HunSt_1_2"/>
    </person>
    <person id="pedestrian200" depart="1012.00">
        <walk edges="GorSq_1_2"/>
    </person>
    <person id="pedestrian201" depart="1014.00">
        <walk edges="GorSq_2_2 BynPl_2_1 BynPl_2_2 BynPl_2_3 TorPl_2_1 TorPl_2_2 TorPl_2_3 HunSt_2_1"/>
    </person>
    <person id="pedestrian202" depart="1020.00">
        <walk edges="MalPl_1_1 BynPl_1_1 BynPl_2_2 BynPl_2_1 GorSq_2_2"/>
    </person>
    <person id="pedestrian203" depart="1032.00">
        <walk edges="RidGa_1_1 TorPl_2_2 TorPl_2_1 MalSt_1_1"/>
    </person>
    <person id="pedestrian204" depart="1038.00">
        <walk edges="TorPl_2_3 TorPl_2_2 TorPl_1_4 MalPl_1_1"/>
    </person>
    <person id="pedestrian205" depart="1039.00">
        <walk edges="HunSt_1_1 HunSt_2_2"/>
    </person>
    <person id="pedestrian206" depart="1040.00">
        <walk edges="TorPl_2_2 TorPl_1_3 TorPl_1_2"/>
    </person>
    <person id="pedestrian207" depart="1055.00">
        <walk edges="GorSq_2_1 GorSq_2_2 BynPl_2_1 BynPl_2_2 BynPl_2_3 TorPl_2_1 TorPl_2_2 TorPl_2_3"/>
    </person>
    <person id="pedestrian208" depart="1057.00">
        <walk edges="TorPl_1_2 TorPl_1_3"/>
    </person>
    <person id="pedestrian209" depart="1065.00">
        <walk edges="BynPl_1_3 BynPl_1_2 BynPl_1_1 TorPl_1_4 TorPl_1_3 TorPl_1_2 TorPl_1_1"/>
    </person>
    <person id="pedestrian210" depart="1066.00">
        <walk edges="HunSt_2_1 HunSt_1_1"/>
    </person>
    <person id="pedestrian211" depart="1067.00">
        <walk edges="TorPl_1_4 BynPl_2_3"/>
    </person>
    <person id="pedestrian212" depart="1067.00">
        <walk edges="BynPl_2_2 BynPl_1_1 TorPl_1_4 GowSt_2_2"/>
    </person>
    <person id="pedestrian213" depart="1069.00">
        <walk edges="BynPl_1_1 BynPl_2_3"/>
    </person>
    <person id="pedestrian214" depart="1080.00">
        <walk edges="TorPl_2_4"/>
    </person>
    <person id="pedestrian215" depart="1086.00">
        <walk edges="TorPl_1_1 TorPl_1_2 TorPl_1_3 TorPl_1_4 BynPl_1_1 BynPl_1_2 BynPl_1_3"/>
    </person>
    <person id="pedestrian216" depart="1088.00">
        <walk edges="BynPl_2_3 BynPl_2_2 BynPl_1_3 GorSq_1_1"/>
    </person>
    <person id="pedestrian217" depart="1091.00">
        <walk edges="MalPl_1_1 TorPl_1_4 GowSt_1_1"/>
    </person>
    <person id="pedestrian218" depart="1092.00">
        <walk edges="MalSt_1_1 BynPl_1_1"/>
    </person>
    <person id="pedestrian219" depart="1097.00">
        <walk edges="TorPl_1_1 TorPl_1_2 TorPl_1_3 TorPl_1_4 BynPl_1_1 BynPl_1_2 BynPl_1_3 GorSq_1_2 GorSq_1_3"/>
    </person>
    <person id="pedestrian220" depart="1101.00">
        <walk edges="GorSq_1_2 BynPl_1_3 BynPl_1_2 BynPl_1_1 TorPl_1_4"/>
    </person>
    <person id="pedestrian221" depart="1106.00">
        <walk edges="BynPl_1_1 TorPl_1_4 TorPl_1_3 CheMe_1_1"/>
    </person>
    <person id="pedestrian222" depart="1120.00">
        <walk edges="GowSt_2_2"/>
    </person>