<?xml version="1.0" encoding="UTF-8"?>

<!-- generated on 2025-11-04 21:02:48.431049 by randomTrips.py v1_24_0+0000-b72eb3fabc8
<configuration>
    <net-file value="../networks/demo/main.net.xml"/>
    <output-trip-file value="../routes/demo/pedestrian.trips.xml"/>
    <route-file value="../routes/demo/pedestrian.rou.xml"/>
    <pedestrians value="True"/>
    <prefix value="pedestrian"/>
    <fringe-factor value="max"/>
    <period value="3.0"/>
    <poisson value="True"/>
</configuration>
-->

<!-- generated on 2025-11-04 21:02:48 by Eclipse SUMO duarouter Version 1.24.0
<duarouterConfiguration xmlns:xsi="http://www.w3.org/2001/XMLSchema-instance" xsi:noNamespaceSchemaLocation="http://sumo.dlr.de/xsd/duarouterConfiguration.xsd">

    <input>
        <net-file value="../networks/demo/main.net.xml"/>
        <route-files value="../routes/demo/pedestrian.trips.xml"/>
    </input>

    <output>
        <output-file value="../routes/demo/pedestrian.rou.xml"/>
        <alternatives-output value="NUL"/>
    </output>

    <time>
        <begin value="0"/>
        <end value="3600.0"/>
    </time>

    <report>
        <no-warnings value="true"/>
        <ignore-errors value="true"/>
        <no-step-log value="true"/>
    </report>

</duarouterConfiguration>
-->

<routes xmlns:xsi="http://www.w3.org/2001/XMLSchema-instance" xsi:noNamespaceSchemaLocation="http://sumo.dlr.de/xsd/routes_file.xsd">
    <person id="pedestrian0" depart="0.00">
        <walk edges="MalPl_1_1 TorPl_1_4 TorPl_1_3 CheMe_2_1"/>
    </person>
    <person id="pedestrian1" depart="3.00">
        <walk edges="GowSt_1_1 TorPl_1_4 BynPl_1_1 BynPl_1_2 BynPl_1_3 GorSq_2_3"/>
    </person>
    <person id="pedestrian2" depart="6.00">
        <walk edges="MalSt_2_1 MalPl_2_1"/>
    </person>
    <person id="pedestrian3" depart="9.00">
        <walk edges="RidGa_2_1 TorPl_2_2 TorPl_1_4 BynPl_1_1 BynPl_1_2 BynPl_1_3 GorSq_1_2 GorSq_1_3"/>
    </person>
    <person id="pedestrian4" depart="12.00">
        <walk edges="HunSt_1_1 TorPl_1_2 CheMe_2_1"/>
    </person>
    <person id="pedestrian5" depart="15.00">
        <walk edges="GorSq_2_1 GorSq_2_2 BynPl_2_1 BynPl_2_2 BynPl_1_1 TorPl_1_4 TorPl_1_3 TorPl_1_2 HunSt_2_2"/>
    </person>
    <person id="pedestrian6" depart="18.00">
        <walk edges="CheMe_1_1 TorPl_1_3 TorPl_1_4 BynPl_1_1 BynPl_1_2 BynPl_1_3 GorSq_2_3"/>
    </person>
    <person id="pedestrian7" depart="21.00">
        <walk edges="MalPl_1_1 TorPl_1_4 TorPl_1_3 TorPl_1_2 HunSt_2_2"/>
    </person>
    <person id="pedestrian8" depart="24.00">
        <walk edges="GorSq_2_1 GorSq_2_2 BynPl_2_1 BynPl_2_2 BynPl_1_1 MalPl_1_1"/>
    </person>
    <person id="pedestrian9" depart="27.00">
        <walk edges="RidGa_1_1 TorPl_2_3 TorPl_1_2 CheMe_2_1"/>
    </person>
    <person id="pedestrian10" depart="30.00">
        <walk edges="RidGa_1_1 TorPl_2_2 TorPl_1_4 MalPl_2_1"/>
    </person>
    <person id="pedestrian11" depart="33.00">
        <walk edges="GowSt_2_1 TorPl_1_4 BynPl_1_1 BynPl_1_2 BynPl_1_3 GorSq_1_2 GorSq_1_3"/>
    </person>
    <person id="pedestrian12" depart="36.00">
        <walk edges="TorPl_1_1 TorPl_1_2 TorPl_1_3 GowSt_2_2"/>
    </person>
    <person id="pedestrian13" depart="39.00">
        <walk edges="CheMe_2_1 TorPl_1_3 TorPl_1_4 BynPl_1_1 BynPl_1_2 BynPl_1_3 GorSq_1_2 GorSq_1_3"/>
    </person>
    <person id="pedestrian14" depart="42.00">
        <walk edges="RidGa_1_1 TorPl_2_2 TorPl_1_4 MalPl_1_1"/>
    </person>
    <person id="pedestrian15" depart="45.00">
        <walk edges="RidGa_1_1 TorPl_2_2 TorPl_1_4 MalPl_2_1"/>
    </person>
    <person id="pedestrian16" depart="48.00">
        <walk edges="HunSt_2_2 TorPl_2_4"/>
    </person>
    <person id="pedestrian17" depart="51.00">
        <walk edges="GowSt_2_1 TorPl_2_2 TorPl_2_3 HunSt_2_2"/>
    </person>
    <person id="pedestrian18" depart="54.00">
        <walk edges="RidGa_1_1 TorPl_2_2 TorPl_1_4 MalPl_1_1"/>
    </person>
    <person id="pedestrian19" depart="57.00">
        <walk edges="RidGa_1_1 TorPl_2_3 HunSt_2_2"/>
    </person>
    <person id="pedestrian20" depart="60.00">
        <walk edges="MalPl_2_1 TorPl_1_4 TorPl_1_3 CheMe_2_1"/>
    </person>
    <person id="pedestrian21" depart="63.00">
        <walk edges="GorSq_2_1 GorSq_2_2 BynPl_2_1 BynPl_2_2 BynPl_2_3 TorPl_2_1 GowSt_1_2"/>
    </person>
    <person id="pedestrian22" depart="66.00">
        <walk edges="CheMe_2_1 TorPl_1_3 TorPl_1_4 BynPl_1_1 BynPl_1_2 BynPl_1_3 GorSq_2_3"/>
    </person>
    <person id="pedestrian23" depart="69.00">
        <walk edges="CheMe_2_1 TorPl_1_3 GowSt_1_2"/>
    </person>
    <person id="pedestrian24" depart="72.00">
        <walk edges="MalPl_1_1 TorPl_1_4 GowSt_2_2"/>
    </person>
    <person id="pedestrian25" depart="75.00">
        <walk edges="GowSt_2_1 TorPl_1_4 BynPl_1_1 BynPl_1_2 BynPl_1_3 GorSq_2_3"/>
    </person>
    <person id="pedestrian26" depart="78.00">
        <walk edges="GowSt_1_1 TorPl_1_3 TorPl_1_2 TorPl_2_4"/>
    </person>
    <person id="pedestrian27" depart="81.00">
        <walk edges="MalPl_1_1"/>
    </person>
    <person id="pedestrian28" depart="84.00">
        <walk edges="GorSq_1_1 BynPl_1_3 BynPl_1_2 BynPl_1_1 MalPl_2_1"/>
    </person>
    <person id="pedestrian29" depart="87.00">
        <walk edges="GorSq_1_1 BynPl_1_3 BynPl_1_2 BynPl_1_1 TorPl_1_4 GowSt_2_2"/>
    </person>
    <person id="pedestrian30" depart="90.00">
        <walk edges="TorPl_1_1 TorPl_1_2 TorPl_1_3 TorPl_1_4 MalPl_1_1"/>
    </person>
    <person id="pedestrian31" depart="93.00">
        <walk edges="HunSt_2_2 TorPl_1_2 TorPl_1_3 TorPl_1_4 MalPl_2_1"/>
    </person>
    <person id="pedestrian32" depart="96.00">
        <walk edges="RidGa_1_1 TorPl_2_2 TorPl_2_1 MalSt_1_1"/>
    </person>
    <person id="pedestrian33" depart="99.00">
        <walk edges="GorSq_2_1 GorSq_2_2 BynPl_2_1 BynPl_2_2 BynPl_1_1 TorPl_1_4 TorPl_1_3 CheMe_2_1"/>
    </person>
    <person id="pedestrian34" depart="102.00">
        <walk edges="GowSt_1_1 GowSt_1_2"/>
    </person>
    <person id="pedestrian35" depart="105.00">
        <walk edges="GorSq_2_1 GorSq_2_2 BynPl_2_1 BynPl_2_2 BynPl_2_3 TorPl_2_1 TorPl_2_2 TorPl_2_3 TorPl_2_4"/>
    </person>
    <person id="pedestrian36" depart="108.00">
        <walk edges="RidGa_2_1 TorPl_2_2 GowSt_1_2"/>
    </person>
    <person id="pedestrian37" depart="111.00">
        <walk edges="MalPl_1_1 TorPl_1_4 GowSt_2_2"/>
    </person>
    <person id="pedestrian38" depart="114.00">
        <walk edges="RidGa_2_1 TorPl_2_3 HunSt_1_2"/>
    </person>
    <person id="pedestrian39" depart="117.00">
        <walk edges="GorSq_2_1 GorSq_1_2 GorSq_2_3"/>
    </person>
    <person id="pedestrian40" depart="120.00">
        <walk edges="HunSt_2_2 TorPl_2_3 TorPl_2_2 GowSt_1_2"/>
    </person>
    <person id="pedestrian41" depart="123.00">
        <walk edges="HunSt_2_2 TorPl_2_3 RidGa_1_1"/>
    </person>
    <person id="pedestrian42" depart="126.00">
        <walk edges="GowSt_2_1 TorPl_1_4 BynPl_1_1 BynPl_1_2 BynPl_1_3 GorSq_2_3"/>
    </person>
    <person id="pedestrian43" depart="129.00">
        <walk edges="TorPl_1_1 HunSt_2_2"/>
    </person>
    <person id="pedestrian44" depart="132.00">
        <walk edges="CheMe_2_1"/>
    </person>
    <person id="pedestrian45" depart="135.00">
        <walk edges="CheMe_2_1 TorPl_1_3 TorPl_1_4 MalPl_1_1"/>
    </person>
    <person id="pedestrian46" depart="138.00">
        <walk edges="MalSt_2_1 TorPl_2_1 TorPl_2_2 TorPl_2_3 HunSt_1_2"/>
    </person>
    <person id="pedestrian47" depart="141.00">
        <walk edges="CheMe_1_1 TorPl_1_3 GowSt_2_2"/>
    </person>
    <person id="pedestrian48" depart="144.00">
        <walk edges="TorPl_1_1 HunSt_2_2"/>
    </person>
    <person id="pedestrian49" depart="147.00">
        <walk edges="TorPl_1_1 TorPl_2_3 RidGa_1_1"/>
    </person>
    <person id="pedestrian50" depart="150.00">
        <walk edges="CheMe_1_1 TorPl_1_3 TorPl_1_4 MalPl_2_1"/>
    </person>
    <person id="pedestrian51" depart="153.00">
        <walk edges="MalPl_2_1 TorPl_1_4 TorPl_1_3 TorPl_1_2 HunSt_2_2"/>
    </person>
    <person id="pedestrian52" depart="156.00">
        <walk edges="GowSt_1_1 TorPl_1_4 MalPl_1_1"/>
    </person>
    <person id="pedestrian53" depart="159.00">
        <walk edges="CheMe_2_1 TorPl_1_2 HunSt_1_2"/>
    </person>
    <person id="pedestrian54" depart="162.00">
        <walk edges="HunSt_1_1 TorPl_2_4"/>
    </person>
    <person id="pedestrian55" depart="165.00">
        <walk edges="RidGa_2_1 TorPl_2_2 GowSt_1_2"/>
    </person>
    <person id="pedestrian56" depart="168.00">
        <walk edges="HunSt_2_1 TorPl_1_2 TorPl_1_3 TorPl_1_4 BynPl_1_1 BynPl_1_2 BynPl_1_3 GorSq_2_3"/>
    </person>
    <person id="pedestrian57" depart="171.00">
        <walk edges="RidGa_2_1 RidGa_1_1"/>
    </person>
    <person id="pedestrian58" depart="174.00">
        <walk edges="GowSt_1_1 TorPl_1_4 MalPl_1_1"/>
    </person>
    <person id="pedestrian59" depart="177.00">
        <walk edges="MalPl_1_1 BynPl_1_1 BynPl_1_2 BynPl_1_3 GorSq_1_2 GorSq_1_3"/>
    </person>
    <person id="pedestrian60" depart="180.00">
        <walk edges="MalSt_2_1 TorPl_2_1 TorPl_2_2 TorPl_2_3 HunSt_2_2"/>
    </person>
    <person id="pedestrian61" depart="183.00">
        <walk edges="MalSt_2_1 TorPl_2_1 TorPl_2_2 TorPl_2_3 HunSt_2_2"/>
    </person>
    <person id="pedestrian62" depart="186.00">
        <walk edges="CheMe_1_1 TorPl_1_3 GowSt_1_2"/>
    </person>
    <person id="pedestrian63" depart="189.00">
        <walk edges="CheMe_1_1 TorPl_1_2 TorPl_2_4"/>
    </person>
    <person id="pedestrian64" depart="192.00">
        <walk edges="RidGa_2_1 TorPl_2_2 TorPl_2_1 MalSt_1_1"/>
    </person>
    <person id="pedestrian65" depart="195.00">
        <walk edges="GowSt_1_1 TorPl_1_3 CheMe_2_1"/>
    </person>
    <person id="pedestrian66" depart="198.00">
        <walk edges="RidGa_2_1 TorPl_2_3 TorPl_2_4"/>
    </person>
    <person id="pedestrian67" depart="201.00">
        <walk edges="CheMe_2_1 TorPl_1_2 HunSt_1_2"/>
    </person>
    <person id="pedestrian68" depart="204.00">
        <walk edges="CheMe_2_1 TorPl_1_3 TorPl_1_4 MalSt_1_1"/>
    </person>
    <person id="pedestrian69" depart="207.00">
        <walk edges="MalSt_2_1 BynPl_2_3 BynPl_2_2 BynPl_1_3 GorSq_1_2 GorSq_1_3"/>
    </person>
    <person id="pedestrian70" depart="210.00">
        <walk edges="HunSt_2_1 HunSt_2_2"/>
    </person>
    <person id="pedestrian71" depart="213.00">
        <walk edges="GorSq_2_1 GorSq_2_2 BynPl_2_1 BynPl_2_2 BynPl_2_3 TorPl_2_1 TorPl_2_2 RidGa_1_1"/>
    </person>
    <person id="pedestrian72" depart="216.00">
        <walk edges="HunSt_1_1 TorPl_1_2 TorPl_1_3 TorPl_1_4 BynPl_1_1 BynPl_1_2 BynPl_1_3 GorSq_2_3"/>
    </person>
    <person id="pedestrian73" depart="219.00">
        <walk edges="HunSt_2_2 TorPl_1_2 TorPl_1_3 TorPl_1_4 MalPl_2_1"/>
    </person>
    <person id="pedestrian74" depart="222.00">
        <walk edges="GorSq_2_1 GorSq_2_2 BynPl_2_1 BynPl_2_2 BynPl_2_3 TorPl_2_1 GowSt_1_2"/>
    </person>
    <person id="pedestrian75" depart="225.00">
        <walk edges="TorPl_1_1 TorPl_1_2 TorPl_1_3 TorPl_1_4 MalPl_1_1"/>
    </person>
    <person id="pedestrian76" depart="228.00">
        <walk edges="HunSt_1_1 HunSt_2_2"/>
    </person>
    <person id="pedestrian77" depart="231.00">
        <walk edges="CheMe_2_1 TorPl_1_3 TorPl_1_4 BynPl_1_1 BynPl_1_2 BynPl_1_3 GorSq_2_3"/>
    </person>
    <person id="pedestrian78" depart="234.00">
        <walk edges="GowSt_2_1 TorPl_1_4 MalPl_1_1"/>
    </person>
    <person id="pedestrian79" depart="237.00">
        <walk edges="GorSq_2_1 GorSq_1_2 GorSq_2_3"/>
    </person>
    <person id="pedestrian80" depart="240.00">
        <walk edges="CheMe_2_1 TorPl_1_3 TorPl_1_4 MalPl_1_1"/>
    </person>
    <person id="pedestrian81" depart="243.00">
        <walk edges="GorSq_2_1 GorSq_2_2 BynPl_2_1 BynPl_2_2 BynPl_2_3 TorPl_2_1 TorPl_2_2 RidGa_1_1"/>
    </person>
    <person id="pedestrian82" depart="246.00">
        <walk edges="RidGa_1_1 TorPl_2_3 TorPl_1_2 CheMe_2_1"/>
    </person>
    <person id="pedestrian83" depart="249.00">
        <walk edges="GorSq_2_1 GorSq_2_2 BynPl_2_1 BynPl_2_2 BynPl_1_1 MalPl_2_1"/>
    </person>
    <person id="pedestrian84" depart="252.00">
        <walk edges="GorSq_2_1 GorSq_1_3"/>
    </person>
    <person id="pedestrian85" depart="255.00">
        <walk edges="TorPl_1_1 HunSt_2_2"/>
    </person>
    <person id="pedestrian86" depart="258.00">
        <walk edges="HunSt_2_1 TorPl_2_3 TorPl_2_2 TorPl_2_1 MalSt_1_1"/>
    </person>
    <person id="pedestrian87" depart="261.00">
        <walk edges="RidGa_1_1 TorPl_2_2 TorPl_1_4 BynPl_1_1 BynPl_1_2 BynPl_1_3 GorSq_2_3"/>
    </person>
    <person id="pedestrian88" depart="264.00">
        <walk edges="CheMe_2_1 TorPl_1_2 HunSt_1_2"/>
    </person>
    <person id="pedestrian89" depart="267.00">
        <walk edges="HunSt_1_1 HunSt_1_2"/>
    </person>
    <person id="pedestrian90" depart="270.00">
        <walk edges="MalPl_2_1"/>
    </person>
    <person id="pedestrian91" depart="273.00">
        <walk edges="TorPl_1_1 TorPl_1_2 TorPl_1_3 TorPl_1_4 BynPl_1_1 BynPl_1_2 BynPl_1_3 GorSq_1_2 GorSq_1_3"/>
    </person>
    <person id="pedestrian92" depart="276.00">
        <walk edges="HunSt_1_1 TorPl_1_2 TorPl_1_3 GowSt_2_2"/>
    </person>
    <person id="pedestrian93" depart="279.00">
        <walk edges="RidGa_1_1 TorPl_2_2 TorPl_1_4 BynPl_1_1 BynPl_1_2 BynPl_1_3 GorSq_2_3"/>
    </person>
    <person id="pedestrian94" depart="282.00">
        <walk edges="GorSq_1_1 BynPl_1_3 BynPl_1_2 BynPl_1_1 TorPl_1_4 TorPl_2_2 TorPl_2_3 HunSt_1_2"/>
    </person>
    <person id="pedestrian95" depart="285.00">
        <walk edges="HunSt_1_1 TorPl_2_3 TorPl_2_2 GowSt_1_2"/>
    </person>
    <person id="pedestrian96" depart="288.00">
        <walk edges="GorSq_2_1 GorSq_2_2 BynPl_2_1 BynPl_2_2 BynPl_2_3 TorPl_2_1 TorPl_2_2 TorPl_2_3 TorPl_2_4"/>
    </person>
    <person id="pedestrian97" depart="291.00">
        <walk edges="HunSt_1_1 TorPl_2_3 RidGa_1_1"/>
    </person>
    <person id="pedestrian98" depart="294.00">
        <walk edges="HunSt_2_2 TorPl_1_2 CheMe_2_1"/>
    </person>
    <person id="pedestrian99" depart="297.00">
        <walk edges="TorPl_1_1 TorPl_2_3 RidGa_1_1"/>
    </person>
    <person id="pedestrian100" depart="300.00">
        <walk edges="TorPl_1_1 TorPl_2_4"/>
    </person>
    <person id="pedestrian101" depart="303.00">
        <walk edges="RidGa_1_1 TorPl_2_2 TorPl_1_4 BynPl_1_1 BynPl_1_2 BynPl_1_3 GorSq_1_2 GorSq_1_3"/>
    </person>
    <person id="pedestrian102" depart="306.00">
        <walk edges="HunSt_2_1 TorPl_1_2 TorPl_1_3 TorPl_1_4 BynPl_1_1 BynPl_1_2 BynPl_1_3 GorSq_2_3"/>
    </person>
    <person id="pedestrian103" depart="309.00">
        <walk edges="HunSt_1_1 TorPl_1_2 CheMe_2_1"/>
    </person>
    <person id="pedestrian104" depart="312.00">
        <walk edges="GowSt_2_1 TorPl_2_2 TorPl_2_3 TorPl_2_4"/>
    </person>
    <person id="pedestrian105" depart="315.00">
        <walk edges="GorSq_2_1 GorSq_2_2 BynPl_2_1 BynPl_2_2 BynPl_2_3 MalSt_1_1"/>
    </person>
    <person id="pedestrian106" depart="318.00">
        <walk edges="HunSt_1_1 HunSt_1_2"/>
    </person>
    <person id="pedestrian107" depart="321.00">
        <walk edges="TorPl_1_1 TorPl_2_4"/>
    </person>
    <person id="pedestrian108" depart="324.00">
        <walk edges="HunSt_2_2 TorPl_1_2 TorPl_1_3 TorPl_1_4 MalPl_2_1"/>
    </person>
    <person id="pedestrian109" depart="327.00">
        <walk edges="GorSq_1_1 BynPl_1_3 BynPl_1_2 BynPl_1_1 TorPl_1_4 GowSt_1_2"/>
    </person>
    <person id="pedestrian110" depart="330.00">
        <walk edges="TorPl_1_1 HunSt_2_2"/>
    </person>
    <person id="pedestrian111" depart="333.00">
        <walk edges="HunSt_2_2 TorPl_1_2 TorPl_1_3 TorPl_1_4 MalPl_2_1"/>
    </person>
    <person id="pedestrian112" depart="336.00">
        <walk edges="CheMe_1_1 TorPl_1_3 TorPl_1_4 MalPl_1_1"/>
    </person>
    <person id="pedestrian113" depart="339.00">
        <walk edges="HunSt_2_1 TorPl_2_3 RidGa_1_1"/>
    </person>
    <person id="pedestrian114" depart="342.00">
        <walk edges="GorSq_1_1 BynPl_1_3 BynPl_1_2 BynPl_1_1 TorPl_1_4 TorPl_1_3 TorPl_1_2 TorPl_2_4"/>
    </person>
    <person id="pedestrian115" depart="345.00">
        <walk edges="CheMe_2_1 TorPl_1_3 TorPl_1_4 BynPl_1_1 BynPl_1_2 BynPl_1_3 GorSq_2_3"/>
    </person>
    <person id="pedestrian116" depart="348.00">
        <walk edges="HunSt_2_2 TorPl_1_2 TorPl_1_3 TorPl_1_4 MalPl_2_1"/>
    </person>
    <person id="pedestrian117" depart="351.00">
        <walk edges="GorSq_2_1 GorSq_1_3"/>
    </person>
    <person id="pedestrian118" depart="354.00">
        <walk edges="RidGa_2_1 TorPl_2_2 TorPl_1_4 BynPl_1_1 BynPl_1_2 BynPl_1_3 GorSq_2_3"/>
    </person>
    <person id="pedestrian119" depart="357.00">
        <walk edges="HunSt_2_2 TorPl_1_2 TorPl_1_3 TorPl_1_4 MalPl_1_1"/>
    </person>
    <person id="pedestrian120" depart="360.00">
        <walk edges="HunSt_1_1 TorPl_1_2 TorPl_1_3 TorPl_1_4 MalPl_1_1"/>
    </person>
    <person id="pedestrian121" depart="363.00">
        <walk edges="HunSt_2_1 TorPl_2_4"/>
    </person>
    <person id="pedestrian122" depart="366.00">
        <walk edges="GorSq_2_1 GorSq_2_2 BynPl_2_1 BynPl_2_2 BynPl_1_1 MalPl_2_1"/>
    </person>
    <person id="pedestrian123" depart="369.00">
        <walk edges="GorSq_2_1 GorSq_2_2 BynPl_2_1 BynPl_2_2 BynPl_1_1 TorPl_1_4 GowSt_2_2"/>
    </person>
    <person id="pedestrian124" depart="372.00">
        <walk edges="MalPl_2_1 TorPl_1_4 GowSt_1_2"/>
    </person>
    <person id="pedestrian125" depart="375.00">
        <walk edges="GowSt_1_1 TorPl_1_4 MalSt_1_1"/>
    </person>
    <person id="pedestrian126" depart="378.00">
        <walk edges="CheMe_2_1 TorPl_1_2 HunSt_1_2"/>
    </person>
    <person id="pedestrian127" depart="381.00">
        <walk edges="TorPl_1_1 TorPl_2_4"/>
    </person>
    <person id="pedestrian128" depart="384.00">
        <walk edges="CheMe_2_1 TorPl_1_3 TorPl_1_4 BynPl_1_1 BynPl_1_2 BynPl_1_3 GorSq_2_3"/>
    </person>
    <person id="pedestrian129" depart="387.00">
        <walk edges="GorSq_2_1 GorSq_2_2 BynPl_2_1 BynPl_2_2 BynPl_2_3 TorPl_2_1 TorPl_2_2 TorPl_2_3 TorPl_2_4"/>
    </person>
    <person id="pedestrian130" depart="390.00">
        <walk edges="RidGa_2_1 RidGa_1_1"/>
    </person>
    <person id="pedestrian131" depart="393.00">
        <walk edges="GowSt_2_1 TorPl_1_4 BynPl_1_1 BynPl_1_2 BynPl_1_3 GorSq_1_2 GorSq_1_3"/>
    </person>
    <person id="pedestrian132" depart="396.00">
        <walk edges="RidGa_1_1 TorPl_2_2 TorPl_1_4 MalPl_2_1"/>
    </person>
    <person id="pedestrian133" depart="399.00">
        <walk edges="MalPl_1_1 TorPl_1_4 TorPl_1_3 TorPl_1_2 TorPl_2_4"/>
    </person>
    <person id="pedestrian134" depart="402.00">
        <walk edges="MalPl_1_1 TorPl_1_4 TorPl_1_3 CheMe_2_1"/>
    </person>
    <person id="pedestrian135" depart="405.00">
        <walk edges="RidGa_1_1 TorPl_2_2 GowSt_1_2"/>
    </person>
    <person id="pedestrian136" depart="408.00">
        <walk edges="MalPl_1_1 TorPl_1_4 TorPl_1_3 TorPl_1_2 TorPl_2_4"/>
    </person>
    <person id="pedestrian137" depart="411.00">
        <walk edges="GorSq_1_1 GorSq_1_2 GorSq_1_3"/>
    </person>
    <person id="pedestrian138" depart="414.00">
        <walk edges="CheMe_2_1 TorPl_1_2 HunSt_2_2"/>
    </person>
    <person id="pedestrian139" depart="417.00">
        <walk edges="GowSt_1_1 TorPl_1_4 MalPl_1_1"/>
    </person>
    <person id="pedestrian140" depart="420.00">
        <walk edges="MalPl_2_1 BynPl_1_1 BynPl_1_2 BynPl_1_3 GorSq_2_3"/>
    </person>
    <person id="pedestrian141" depart="423.00">
        <walk edges="MalPl_1_1 TorPl_1_4 GowSt_1_2"/>
    </person>
    <person id="pedestrian142" depart="426.00">
        <walk edges="HunSt_2_1 TorPl_2_3 RidGa_1_1"/>
    </person>
    <person id="pedestrian143" depart="429.00">
        <walk edges="RidGa_1_1 TorPl_2_2 TorPl_1_4 BynPl_1_1 BynPl_1_2 BynPl_1_3 GorSq_1_2 GorSq_1_3"/>
    </person>
    <person id="pedestrian144" depart="432.00">
        <walk edges="HunSt_1_1 TorPl_2_3 TorPl_2_2 GowSt_1_2"/>
    </person>
    <person id="pedestrian145" depart="435.00">
        <walk edges="CheMe_1_1 TorPl_1_3 TorPl_1_4 MalSt_1_1"/>
    </person>
    <person id="pedestrian146" depart="438.00">
        <walk edges="MalPl_1_1 TorPl_1_4 GowSt_1_2"/>
    </person>
    <person id="pedestrian147" depart="441.00">
        <walk edges="MalSt_2_1 TorPl_2_1 TorPl_2_2 TorPl_2_3 HunSt_2_2"/>
    </person>
    <person id="pedestrian148" depart="444.00">
        <walk edges="HunSt_1_1 TorPl_1_2 CheMe_2_1"/>
    </person>
    <person id="pedestrian149" depart="447.00">
        <walk edges="CheMe_2_1 TorPl_1_2 TorPl_2_3 RidGa_1_1"/>
    </person>
    <person id="pedestrian150" depart="450.00">
        <walk edges="RidGa_2_1 TorPl_2_3 HunSt_2_2"/>
    </person>
    <person id="pedestrian151" depart="453.00">
        <walk edges="RidGa_1_1 TorPl_2_3 HunSt_2_2"/>
    </person>
    <person id="pedestrian152" depart="456.00">
        <walk edges="GorSq_1_1 GorSq_1_2 GorSq_1_3"/>
    </person>
    <person id="pedestrian153" depart="459.00">
        <walk edges="GowSt_1_1 TorPl_2_2 RidGa_1_1"/>
    </person>
    <person id="pedestrian154" depart="462.00">
        <walk edges="MalSt_2_1 TorPl_2_1 TorPl_2_2 RidGa_1_1"/>
    </person>
    <person id="pedestrian155" depart="465.00">
        <walk edges="RidGa_2_1 TorPl_2_2 TorPl_1_4 BynPl_1_1 BynPl_1_2 BynPl_1_3 GorSq_2_3"/>
    </person>
    <person id="pedestrian156" depart="468.00">
        <walk edges="GorSq_2_1 GorSq_1_3"/>
    </person>
    <person id="pedestrian157" depart="471.00">
        <walk edges="MalSt_2_1 TorPl_2_1 TorPl_2_2 RidGa_1_1"/>
    </person>
    <person id="pedestrian158" depart="474.00">
        <walk edges="HunSt_1_1 TorPl_1_2 TorPl_1_3 TorPl_1_4 MalPl_1_1"/>
    </person>
    <person id="pedestrian159" depart="477.00">
        <walk edges="GorSq_1_1 BynPl_1_3 BynPl_1_2 BynPl_1_1 TorPl_1_4 TorPl_1_3 TorPl_1_2 TorPl_2_4"/>
    </person>
    <person id="pedestrian160" depart="480.00">
        <walk edges="RidGa_1_1 TorPl_2_3 TorPl_2_4"/>
    </person>
    <person id="pedestrian161" depart="483.00">
        <walk edges="RidGa_1_1"/>
    </person>
    <person id="pedestrian162" depart="486.00">
        <walk edges="CheMe_1_1 TorPl_1_3 TorPl_1_4 MalPl_2_1"/>
    </person>
    <person id="pedestrian163" depart="489.00">
        <walk edges="GowSt_1_1 TorPl_1_3 TorPl_1_2 TorPl_2_4"/>
    </person>
    <person id="pedestrian164" depart="492.00">
        <walk edges="RidGa_1_1"/>
    </person>
    <person id="pedestrian165" depart="495.00">
        <walk edges="RidGa_1_1 TorPl_2_2 GowSt_1_2"/>
    </person>
    <person id="pedestrian166" depart="498.00">
        <walk edges="MalSt_2_1 BynPl_2_3 BynPl_2_2 BynPl_1_3 GorSq_1_2 GorSq_1_3"/>
    </person>
    <person id="pedestrian167" depart="501.00">
        <walk edges="RidGa_2_1 RidGa_1_1"/>
    </person>
    <person id="pedestrian168" depart="504.00">
        <walk edges="GorSq_2_1 GorSq_2_2 BynPl_2_1 BynPl_2_2 BynPl_2_3 MalSt_1_1"/>
    </person>
    <person id="pedestrian169" depart="507.00">
        <walk edges="HunSt_1_1 TorPl_2_3 TorPl_2_2 GowSt_1_2"/>
    </person>
    <person id="pedestrian170" depart="510.00">
        <walk edges="MalSt_2_1 BynPl_2_3 BynPl_2_2 BynPl_1_3 GorSq_2_3"/>
    </person>
    <person id="pedestrian171" depart="513.00">
        <walk edges="CheMe_1_1 TorPl_1_3 TorPl_1_4 BynPl_1_1 BynPl_1_2 BynPl_1_3 GorSq_2_3"/>
    </person>
    <person id="pedestrian172" depart="516.00">
        <walk edges="GowSt_1_1 TorPl_2_2 RidGa_1_1"/>
    </person>
    <person id="pedestrian173" depart="519.00">
        <walk edges="TorPl_1_1 TorPl_2_3 TorPl_2_2 GowSt_1_2"/>
    </person>
    <person id="pedestrian174" depart="522.00">
        <walk edges="MalPl_1_1 TorPl_1_4 GowSt_2_2"/>
    </person>
    <person id="pedestrian175" depart="525.00">
        <walk edges="TorPl_1_1 HunSt_2_2"/>
    </person>
    <person id="pedestrian176" depart="528.00">
        <walk edges="TorPl_1_1 TorPl_1_2 TorPl_1_3 TorPl_1_4 BynPl_1_1 BynPl_1_2 BynPl_1_3 GorSq_1_2 GorSq_1_3"/>
    </person>
    <person id="pedestrian177" depart="531.00">
        <walk edges="TorPl_1_1 TorPl_1_2 TorPl_1_3 TorPl_1_4 BynPl_1_1 BynPl_1_2 BynPl_1_3 GorSq_2_3"/>
    </person>
    <person id="pedestrian178" depart="534.00">
        <walk edges="TorPl_1_1 TorPl_2_3 TorPl_2_2 GowSt_1_2"/>
    </person>
    <person id="pedestrian179" depart="537.00">
        <walk edges="CheMe_2_1 TorPl_1_2 HunSt_1_2"/>
    </person>
    <person id="pedestrian180" depart="540.00">
        <walk edges="MalPl_2_1 TorPl_1_4 GowSt_1_2"/>
    </person>
    <person id="pedestrian181" depart="543.00">
        <walk edges="MalPl_1_1 TorPl_1_4 TorPl_1_3 TorPl_1_2 HunSt_2_2"/>
    </person>
    <person id="pedestrian182" depart="546.00">
        <walk edges="GowSt_2_1 TorPl_2_2 TorPl_2_3 HunSt_2_2"/>
    </person>
    <person id="pedestrian183" depart="549.00">
        <walk edges="GorSq_2_1 GorSq_2_2 BynPl_2_1 BynPl_2_2 BynPl_1_1 MalPl_2_1"/>
    </person>
    <person id="pedestrian184" depart="552.00">
        <walk edges="CheMe_1_1 TorPl_1_2 TorPl_2_4"/>
    </person>
    <person id="pedestrian185" depart="555.00">
        <walk edges="HunSt_2_2 TorPl_1_2 TorPl_1_3 TorPl_1_4 MalPl_2_1"/>
    </person>
    <person id="pedestrian186" depart="558.00">
        <walk edges="MalSt_2_1 MalPl_2_1"/>
    </person>
    <person id="pedestrian187" depart="561.00">
        <walk edges="GowSt_2_1 TorPl_1_3 CheMe_2_1"/>
    </person>
    <person id="pedestrian188" depart="564.00">
        <walk edges="MalPl_1_1 TorPl_1_4 GowSt_1_2"/>
    </person>
    <person id="pedestrian189" depart="567.00">
        <walk edges="GowSt_1_1 TorPl_2_2 RidGa_1_1"/>
    </person>
    <person id="pedestrian190" depart="570.00">
        <walk edges="MalPl_2_1 TorPl_1_4 GowSt_1_2"/>
    </person>
    <person id="pedestrian191" depart="573.00">
        <walk edges="GowSt_1_1 GowSt_2_2"/>
    </person>
    <person id="pedestrian192" depart="576.00">
        <walk edges="HunSt_1_1 TorPl_2_3 TorPl_2_2 GowSt_1_2"/>
    </person>
    <person id="pedestrian193" depart="579.00">
        <walk edges="CheMe_2_1 TorPl_1_2 HunSt_1_2"/>
    </person>
    <person id="pedestrian194" depart="582.00">
        <walk edges="TorPl_1_1 TorPl_1_2 TorPl_1_3 TorPl_1_4 MalPl_2_1"/>
    </person>
    <person id="pedestrian195" depart="585.00">
        <walk edges="RidGa_2_1 TorPl_2_2 TorPl_1_4 MalPl_1_1"/>
    </person>
    <person id="pedestrian196" depart="588.00">
        <walk edges="GowSt_1_1 TorPl_1_3 TorPl_1_2 HunSt_2_2"/>
    </person>
    <person id="pedestrian197" depart="591.00">
        <walk edges="CheMe_1_1 TorPl_1_3 GowSt_1_2"/>
    </person>
    <person id="pedestrian198" depart="594.00">
        <walk edges="HunSt_1_1 HunSt_2_2"/>
    </person>
    <person id="pedestrian199" depart="597.00">
        <walk edges="MalPl_1_1 TorPl_1_4 TorPl_2_2 TorPl_2_3 HunSt_1_2"/>
    </person>
    <person id="pedestrian200" depart="600.00">
        <walk edges="HunSt_1_1 TorPl_1_2 TorPl_1_3 TorPl_1_4 BynPl_1_1 BynPl_1_2 BynPl_1_3 GorSq_2_3"/>
    </person>
    <person id="pedestrian201" depart="603.00">
        <walk edges="HunSt_2_1 TorPl_2_3 RidGa_1_1"/>
    </person>
    <person id="pedestrian202" depart="606.00">
        <walk edges="MalSt_2_1 BynPl_2_3 BynPl_2_2 BynPl_1_3 GorSq_2_3"/>
    </person>
    <person id="pedestrian203" depart="609.00">
        <walk edges="CheMe_2_1 TorPl_1_2 HunSt_2_2"/>
    </person>
    <person id="pedestrian204" depart="612.00">
        <walk edges="MalPl_1_1 TorPl_1_4 GowSt_2_2"/>
    </person>
    <person id="pedestrian205" depart="615.00">
        <walk edges="RidGa_1_1 TorPl_2_2 TorPl_2_1 MalSt_1_1"/>
    </person>
    <person id="pedestrian206" depart="618.00">
        <walk edges="MalPl_2_1 BynPl_1_1 BynPl_1_2 BynPl_1_3 GorSq_2_3"/>
    </person>
    <person id="pedestrian207" depart="621.00">
        <walk edges="GorSq_1_1 BynPl_1_3 BynPl_1_2 BynPl_1_1 TorPl_1_4 TorPl_1_3 CheMe_2_1"/>
    </person>
    <person id="pedestrian208" depart="624.00">
        <walk edges="GorSq_2_1 GorSq_2_2 BynPl_2_1 BynPl_2_2 BynPl_2_3 TorPl_2_1 TorPl_2_2 TorPl_2_3 HunSt_1_2"/>
    </person>
    <person id="pedestrian209" depart="627.00">
        <walk edges="RidGa_1_1 TorPl_2_3 TorPl_1_2 CheMe_2_1"/>
    </person>
    <person id="pedestrian210" depart="630.00">
        <walk edges="HunSt_1_1 TorPl_1_2 TorPl_1_3 TorPl_1_4 MalPl_1_1"/>
    </person>
    <person id="pedestrian211" depart="633.00">
        <walk edges="GorSq_1_1 BynPl_1_3 BynPl_1_2 BynPl_1_1 MalPl_2_1"/>
    </person>
    <person id="pedestrian212" depart="636.00">
        <walk edges="HunSt_2_1 TorPl_1_2 TorPl_1_3 TorPl_1_4 BynPl_1_1 BynPl_1_2 BynPl_1_3 GorSq_2_3"/>
    </person>
    <person id="pedestrian213" depart="639.00">
        <walk edges="MalPl_1_1 TorPl_1_4 TorPl_1_3 CheMe_2_1"/>
    </person>
    <person id="pedestrian214" depart="642.00">
        <walk edges="MalSt_2_1 MalSt_1_1"/>
    </person>
    <person id="pedestrian215" depart="645.00">
        <walk edges="CheMe_2_1 TorPl_1_2 HunSt_1_2"/>
    </person>
    <person id="pedestrian216" depart="648.00">