<?xml version="1.0" encoding="UTF-8"?>

<!-- generated on 2025-11-16 12:38:50.676462 by randomTrips.py v1_24_0+0000-b72eb3fabc8
<configuration>
    <net-file value="../networks/demo/main.net.xml"/>
    <output-trip-file value="../routes/demo/pedestrian.trips.xml"/>
    <route-file value="../routes/demo/pedestrian.rou.xml"/>
    <pedestrians value="True"/>
    <prefix value="pedestrian"/>
    <fringe-factor value="max"/>
    <period value="3.0"/>
    <binomial value="100"/>
</configuration>
-->

<!-- generated on 2025-11-16 12:38:50 by Eclipse SUMO duarouter Version 1.24.0
<duarouterConfiguration xmlns:xsi="http://www.w3.org/2001/XMLSchema-instance" xsi:noNamespaceSchemaLocation="http://sumo.dlr.de/xsd/duarouterConfiguration.xsd">

    <input>
        <net-file value="../networks/demo/main.net.xml"/>
        <route-files value="../routes/demo/pedestrian.trips.xml"/>
    </input>

    <output>
        <output-file value="../routes/demo/pedestrian.rou.xml"/>
        <alternatives-output value="NUL"/>
    </output>

    <time>
        <begin value="0"/>
        <end value="3600.0"/>
    </time>

    <report>
        <no-warnings value="true"/>
        <ignore-errors value="true"/>
        <no-step-log value="true"/>
    </report>

</duarouterConfiguration>
-->

<routes xmlns:xsi="http://www.w3.org/2001/XMLSchema-instance" xsi:noNamespaceSchemaLocation="http://sumo.dlr.de/xsd/routes_file.xsd">
    <person id="pedestrian0" depart="1.00">
        <walk edges="GowSt_1_1 TorPl_1_3 CheMe_2_1"/>
    </person>
    <person id="pedestrian1" depart="3.00">
        <walk edges="RidGa_2_1 TorPl_2_3 HunSt_2_2"/>
    </person>
    <person id="pedestrian2" depart="3.00">
        <walk edges="GowSt_1_1 TorPl_2_2 TorPl_2_3 HunSt_1_2"/>
    </person>
    <person id="pedestrian3" depart="6.00">
        <walk edges="HunSt_1_1 TorPl_1_2 TorPl_1_3 TorPl_1_4 MalPl_1_1"/>
    </person>
    <person id="pedestrian4" depart="10.00">
        <walk edges="RidGa_1_1 TorPl_2_2 TorPl_1_4 BynPl_1_1 BynPl_1_2 BynPl_1_3 GorSq_1_2 GorSq_1_3"/>
    </person>
    <person id="pedestrian5" depart="25.00">
        <walk edges="MalSt_2_1 MalPl_2_1"/>
    </person>
    <person id="pedestrian6" depart="25.00">
        <walk edges="TorPl_1_1 TorPl_1_2 TorPl_1_3 TorPl_1_4 BynPl_1_1 BynPl_1_2 BynPl_1_3 GorSq_2_3"/>
    </person>
    <person id="pedestrian7" depart="25.00">
        <walk edges="HunSt_2_1 TorPl_1_2 TorPl_1_3 TorPl_1_4 BynPl_1_1 BynPl_1_2 BynPl_1_3 GorSq_1_2 GorSq_1_3"/>
    </person>
    <person id="pedestrian8" depart="27.00">
        <walk edges="MalPl_1_1 TorPl_1_4 TorPl_2_2 RidGa_1_1"/>
    </person>
    <person id="pedestrian9" depart="29.00">
        <walk edges="RidGa_2_1 TorPl_2_2 TorPl_1_4 BynPl_1_1 BynPl_1_2 BynPl_1_3 GorSq_2_3"/>
    </person>
    <person id="pedestrian10" depart="29.00">
        <walk edges="GowSt_2_1 TorPl_1_4 MalPl_2_1"/>
    </person>
    <person id="pedestrian11" depart="33.00">
        <walk edges="MalPl_2_1 TorPl_1_4 TorPl_2_2 RidGa_1_1"/>
    </person>
    <person id="pedestrian12" depart="34.00">
        <walk edges="CheMe_2_1 TorPl_1_3 TorPl_1_4 MalPl_1_1"/>
    </person>
    <person id="pedestrian13" depart="40.00">
        <walk edges="GorSq_1_1 BynPl_1_3 BynPl_1_2 BynPl_1_1 TorPl_1_4 TorPl_1_3 TorPl_1_2 TorPl_2_4"/>
    </person>
    <person id="pedestrian14" depart="43.00">
        <walk edges="RidGa_1_1"/>
    </person>
    <person id="pedestrian15" depart="44.00">
        <walk edges="MalPl_1_1 TorPl_1_4 GowSt_2_2"/>
    </person>
    <person id="pedestrian16" depart="49.00">
        <walk edges="CheMe_1_1 TorPl_1_3 TorPl_1_4 MalPl_1_1"/>
    </person>
    <person id="pedestrian17" depart="51.00">
        <walk edges="GorSq_1_1 GorSq_1_2 GorSq_1_3"/>
    </person>
    <person id="pedestrian18" depart="54.00">
        <walk edges="TorPl_1_1 TorPl_1_2 TorPl_1_3 TorPl_1_4 MalSt_1_1"/>
    </person>
    <person id="pedestrian19" depart="59.00">
        <walk edges="GorSq_2_1 GorSq_2_2 BynPl_2_1 BynPl_2_2 BynPl_2_3 TorPl_2_1 TorPl_2_2 TorPl_2_3 TorPl_2_4"/>
    </person>
    <person id="pedestrian20" depart="71.00">
        <walk edges="HunSt_1_1 TorPl_1_2 TorPl_1_3 TorPl_1_4 MalSt_1_1"/>
    </person>
    <person id="pedestrian21" depart="71.00">
        <walk edges="TorPl_1_1 HunSt_1_2"/>
    </person>
    <person id="pedestrian22" depart="71.00">
        <walk edges="HunSt_2_1 TorPl_2_3 RidGa_1_1"/>
    </person>
    <person id="pedestrian23" depart="79.00">
        <walk edges="CheMe_2_1 TorPl_1_3 TorPl_1_4 MalPl_2_1"/>
    </person>
    <person id="pedestrian24" depart="80.00">
        <walk edges="CheMe_1_1 TorPl_1_2 HunSt_2_2"/>
    </person>
    <person id="pedestrian25" depart="82.00">
        <walk edges="GowSt_1_1 TorPl_1_3 TorPl_1_2 TorPl_2_4"/>
    </person>
    <person id="pedestrian26" depart="86.00">
        <walk edges="GowSt_2_1 TorPl_1_4 MalPl_1_1"/>
    </person>
    <person id="pedestrian27" depart="87.00">
        <walk edges="RidGa_2_1 TorPl_2_2 TorPl_1_4 BynPl_1_1 BynPl_1_2 BynPl_1_3 GorSq_1_2 GorSq_1_3"/>
    </person>
    <person id="pedestrian28" depart="88.00">
        <walk edges="TorPl_1_1 TorPl_1_2 CheMe_2_1"/>
    </person>
    <person id="pedestrian29" depart="96.00">
        <walk edges="GorSq_2_1 GorSq_2_2 BynPl_2_1 BynPl_2_2 BynPl_1_1 TorPl_1_4 GowSt_2_2"/>
    </person>
    <person id="pedestrian30" depart="97.00">
        <walk edges="MalPl_1_1 BynPl_1_1 BynPl_1_2 BynPl_1_3 GorSq_1_2 GorSq_1_3"/>
    </person>
    <person id="pedestrian31" depart="103.00">
        <walk edges="CheMe_2_1 TorPl_1_2 HunSt_2_2"/>
    </person>
    <person id="pedestrian32" depart="107.00">
        <walk edges="GowSt_1_1 GowSt_2_2"/>
    </person>
    <person id="pedestrian33" depart="108.00">
        <walk edges="GorSq_1_1 BynPl_1_3 BynPl_1_2 BynPl_1_1 TorPl_1_4 TorPl_2_2 RidGa_1_1"/>
    </person>
    <person id="pedestrian34" depart="113.00">
        <walk edges="MalSt_2_1 MalPl_1_1"/>
    </person>
    <person id="pedestrian35" depart="118.00">
        <walk edges="GorSq_2_1 GorSq_2_2 BynPl_2_1 BynPl_2_2 BynPl_1_1 TorPl_1_4 TorPl_1_3 TorPl_1_2 HunSt_2_2"/>
    </person>
    <person id="pedestrian36" depart="129.00">
        <walk edges="CheMe_1_1 CheMe_2_1"/>
    </person>
    <person id="pedestrian37" depart="130.00">
        <walk edges="HunSt_1_1 TorPl_1_2 TorPl_1_3 TorPl_1_4 MalPl_2_1"/>
    </person>
    <person id="pedestrian38" depart="131.00">
        <walk edges="MalSt_2_1 TorPl_2_1 TorPl_2_2 TorPl_2_3 HunSt_2_2"/>
    </person>
    <person id="pedestrian39" depart="134.00">
        <walk edges="GorSq_1_1 BynPl_1_3 BynPl_1_2 BynPl_1_1 TorPl_1_4 TorPl_1_3 TorPl_1_2 TorPl_2_4"/>
    </person>
    <person id="pedestrian40" depart="136.00">
        <walk edges="HunSt_1_1 TorPl_1_2 TorPl_1_3 TorPl_1_4 MalSt_1_1"/>
    </person>
    <person id="pedestrian41" depart="137.00">
        <walk edges="CheMe_1_1 TorPl_1_2 TorPl_2_3 RidGa_1_1"/>
    </person>
    <person id="pedestrian42" depart="138.00">
        <walk edges="GorSq_1_1 GorSq_1_2 GorSq_1_3"/>
    </person>
    <person id="pedestrian43" depart="139.00">
        <walk edges="HunSt_2_1 TorPl_2_3 TorPl_2_2 TorPl_2_1 MalSt_1_1"/>
    </person>
    <person id="pedestrian44" depart="140.00">
        <walk edges="GorSq_2_1 GorSq_2_2 BynPl_2_1 BynPl_2_2 BynPl_2_3 MalSt_1_1"/>
    </person>
    <person id="pedestrian45" depart="143.00">
        <walk edges="GorSq_1_1 GorSq_1_2 GorSq_1_3"/>
    </person>
    <person id="pedestrian46" depart="143.00">
        <walk edges="MalPl_2_1 TorPl_1_4 TorPl_1_3 TorPl_1_2 TorPl_2_4"/>
    </person>
    <person id="pedestrian47" depart="145.00">
        <walk edges="GorSq_2_1 GorSq_1_2 GorSq_2_3"/>
    </person>
    <person id="pedestrian48" depart="147.00">
        <walk edges="MalPl_1_1 BynPl_1_1 BynPl_1_2 BynPl_1_3 GorSq_2_3"/>
    </person>
    <person id="pedestrian49" depart="149.00">
        <walk edges="GowSt_2_1 GowSt_2_2"/>
    </person>
    <person id="pedestrian50" depart="149.00">
        <walk edges="MalPl_2_1 TorPl_1_4 TorPl_1_3 TorPl_1_2 HunSt_2_2"/>
    </person>
    <person id="pedestrian51" depart="151.00">
        <walk edges="HunSt_2_2 TorPl_1_2 TorPl_1_3 TorPl_1_4 BynPl_1_1 BynPl_1_2 BynPl_1_3 GorSq_1_2 GorSq_1_3"/>
    </person>
    <person id="pedestrian52" depart="152.00">
        <walk edges="MalPl_1_1 MalPl_2_1"/>
    </person>
    <person id="pedestrian53" depart="158.00">
        <walk edges="GorSq_2_1 GorSq_2_2 BynPl_2_1 BynPl_2_2 BynPl_2_3 TorPl_2_1 TorPl_2_2 TorPl_2_3 TorPl_2_4"/>
    </person>
    <person id="pedestrian54" depart="168.00">
        <walk edges="CheMe_2_1 TorPl_1_3 TorPl_1_4 BynPl_1_1 BynPl_1_2 BynPl_1_3 GorSq_1_2 GorSq_1_3"/>
    </person>
    <person id="pedestrian55" depart="169.00">
        <walk edges="GowSt_2_1 TorPl_2_2 TorPl_2_3 TorPl_2_4"/>
    </person>
    <person id="pedestrian56" depart="169.00">
        <walk edges="HunSt_2_1 TorPl_1_2 TorPl_1_3 GowSt_2_2"/>
    </person>
    <person id="pedestrian57" depart="170.00">
        <walk edges="HunSt_1_1 TorPl_1_2 TorPl_1_3 TorPl_1_4 BynPl_1_1 BynPl_1_2 BynPl_1_3 GorSq_1_2 GorSq_1_3"/>
    </person>
    <person id="pedestrian58" depart="174.00">
        <walk edges="GowSt_2_1 TorPl_2_2 TorPl_2_3 HunSt_1_2"/>
    </person>
    <person id="pedestrian59" depart="176.00">
        <walk edges="GorSq_1_1 BynPl_1_3 BynPl_1_2 BynPl_1_1 TorPl_1_4 GowSt_1_2"/>
    </person>
    <person id="pedestrian60" depart="176.00">
        <walk edges="HunSt_1_1 HunSt_2_2"/>
    </person>
    <person id="pedestrian61" depart="180.00">
        <walk edges="HunSt_2_2 TorPl_1_2 TorPl_1_3 TorPl_1_4 BynPl_1_1 BynPl_1_2 BynPl_1_3 GorSq_2_3"/>
    </person>
    <person id="pedestrian62" depart="181.00">
        <walk edges="MalSt_2_1 BynPl_2_3 BynPl_2_2 BynPl_1_3 GorSq_2_3"/>
    </person>
    <person id="pedestrian63" depart="182.00">
        <walk edges="CheMe_1_1 TorPl_1_2 TorPl_2_4"/>
    </person>
    <person id="pedestrian64" depart="184.00">
        <walk edges="RidGa_2_1 TorPl_2_3 HunSt_2_2"/>
    </person>
    <person id="pedestrian65" depart="192.00">
        <walk edges="GorSq_2_1 GorSq_1_2 GorSq_2_3"/>
    </person>
    <person id="pedestrian66" depart="195.00">
        <walk edges="MalPl_2_1 BynPl_1_1 BynPl_1_2 BynPl_1_3 GorSq_2_3"/>
    </person>
    <person id="pedestrian67" depart="200.00">
        <walk edges="MalSt_2_1 TorPl_2_1 TorPl_2_2 TorPl_2_3 TorPl_2_4"/>
    </person>
    <person id="pedestrian68" depart="203.00">
        <walk edges="GowSt_2_1 TorPl_2_2 TorPl_2_3 HunSt_2_2"/>
    </person>
    <person id="pedestrian69" depart="205.00">
        <walk edges="GorSq_2_1 GorSq_2_2 BynPl_2_1 BynPl_2_2 BynPl_1_1 MalPl_1_1"/>
    </person>
    <person id="pedestrian70" depart="206.00">
        <walk edges="TorPl_1_1 TorPl_1_2 TorPl_1_3 TorPl_1_4 MalSt_1_1"/>
    </person>
    <person id="pedestrian71" depart="207.00">
        <walk edges="RidGa_2_1 TorPl_2_2 GowSt_1_2"/>
    </person>
    <person id="pedestrian72" depart="209.00">
        <walk edges="GowSt_1_1 TorPl_2_2 TorPl_2_3 HunSt_1_2"/>
    </person>
    <person id="pedestrian73" depart="209.00">
        <walk edges="GowSt_2_1 TorPl_1_4 MalPl_2_1"/>
    </person>
    <person id="pedestrian74" depart="220.00">
        <walk edges="TorPl_1_1 TorPl_1_2 TorPl_1_3 TorPl_1_4 MalPl_2_1"/>
    </person>
    <person id="pedestrian75" depart="221.00">
        <walk edges="HunSt_2_1 TorPl_1_2 TorPl_1_3 TorPl_1_4 BynPl_1_1 BynPl_1_2 BynPl_1_3 GorSq_2_3"/>
    </person>
    <person id="pedestrian76" depart="221.00">
        <walk edges="RidGa_1_1 TorPl_2_2 TorPl_2_1 MalSt_1_1"/>
    </person>
    <person id="pedestrian77" depart="228.00">
        <walk edges="MalPl_1_1 BynPl_1_1 BynPl_1_2 BynPl_1_3 GorSq_2_3"/>
    </person>
    <person id="pedestrian78" depart="231.00">
        <walk edges="CheMe_2_1 TorPl_1_3 GowSt_1_2"/>
    </person>
    <person id="pedestrian79" depart="234.00">
        <walk edges="RidGa_1_1 TorPl_2_2 TorPl_1_4 MalPl_2_1"/>
    </person>
    <person id="pedestrian80" depart="236.00">
        <walk edges="GowSt_1_1 TorPl_1_4 MalPl_1_1"/>
    </person>
    <person id="pedestrian81" depart="240.00">
        <walk edges="MalPl_1_1 TorPl_1_4 GowSt_2_2"/>
    </person>
    <person id="pedestrian82" depart="245.00">
        <walk edges="HunSt_1_1 TorPl_1_2 TorPl_1_3 TorPl_1_4 BynPl_1_1 BynPl_1_2 BynPl_1_3 GorSq_2_3"/>
    </person>
    <person id="pedestrian83" depart="247.00">
        <walk edges="GowSt_1_1 TorPl_1_3 TorPl_1_2 TorPl_2_4"/>
    </person>
    <person id="pedestrian84" depart="265.00">
        <walk edges="HunSt_1_1 TorPl_1_2 CheMe_2_1"/>
    </person>
    <person id="pedestrian85" depart="266.00">
        <walk edges="MalPl_1_1 TorPl_1_4 TorPl_1_3 TorPl_1_2 HunSt_2_2"/>
    </person>
    <person id="pedestrian86" depart="268.00">
        <walk edges="GowSt_1_1 TorPl_1_3 CheMe_2_1"/>
    </person>
    <person id="pedestrian87" depart="268.00">
        <walk edges="MalSt_2_1 MalSt_1_1"/>
    </person>
    <person id="pedestrian88" depart="273.00">
        <walk edges="RidGa_2_1 TorPl_2_2 TorPl_1_4 MalPl_2_1"/>
    </person>
    <person id="pedestrian89" depart="276.00">
        <walk edges="HunSt_2_1 TorPl_1_2 TorPl_1_3 TorPl_1_4 BynPl_1_1 BynPl_1_2 BynPl_1_3 GorSq_2_3"/>
    </person>
    <person id="pedestrian90" depart="279.00">
        <walk edges="GorSq_1_1 BynPl_1_3 BynPl_1_2 BynPl_1_1 TorPl_1_4 TorPl_2_2 TorPl_2_3 HunSt_1_2"/>
    </person>
    <person id="pedestrian91" depart="279.00">
        <walk edges="HunSt_2_1 TorPl_1_2 TorPl_1_3 TorPl_1_4 MalPl_2_1"/>
    </person>
    <person id="pedestrian92" depart="280.00">
        <walk edges="MalPl_2_1 TorPl_1_4 TorPl_1_3 CheMe_2_1"/>
    </person>
    <person id="pedestrian93" depart="290.00">
        <walk edges="MalPl_2_1 BynPl_1_1 BynPl_1_2 BynPl_1_3 GorSq_1_2 GorSq_1_3"/>
    </person>
    <person id="pedestrian94" depart="293.00">
        <walk edges="HunSt_2_1 TorPl_1_2 TorPl_1_3 TorPl_1_4 BynPl_1_1 BynPl_1_2 BynPl_1_3 GorSq_2_3"/>
    </person>
    <person id="pedestrian95" depart="295.00">
        <walk edges="GowSt_1_1 TorPl_1_4 MalSt_1_1"/>
    </person>
    <person id="pedestrian96" depart="295.00">
        <walk edges="RidGa_1_1 TorPl_2_3 HunSt_2_2"/>
    </person>
    <person id="pedestrian97" depart="295.00">
        <walk edges="RidGa_1_1 TorPl_2_2 TorPl_1_4 BynPl_1_1 BynPl_1_2 BynPl_1_3 GorSq_2_3"/>
    </person>
    <person id="pedestrian98" depart="303.00">
        <walk edges="RidGa_2_1 TorPl_2_2 TorPl_1_4 BynPl_1_1 BynPl_1_2 BynPl_1_3 GorSq_2_3"/>
    </person>
    <person id="pedestrian99" depart="305.00">
        <walk edges="GorSq_2_1 GorSq_2_2 BynPl_2_1 BynPl_2_2 BynPl_2_3 TorPl_2_1 TorPl_2_2 TorPl_2_3 HunSt_1_2"/>
    </person>
    <person id="pedestrian100" depart="308.00">
        <walk edges="MalPl_2_1 BynPl_1_1 BynPl_1_2 BynPl_1_3 GorSq_2_3"/>
    </person>
    <person id="pedestrian101" depart="309.00">
        <walk edges="RidGa_2_1 TorPl_2_2 GowSt_2_2"/>
    </person>
    <person id="pedestrian102" depart="310.00">
        <walk edges="CheMe_1_1 TorPl_1_2 TorPl_2_4"/>
    </person>
    <person id="pedestrian103" depart="311.00">
        <walk edges="HunSt_1_1 TorPl_1_2 CheMe_2_1"/>
    </person>
    <person id="pedestrian104" depart="311.00">
        <walk edges="RidGa_1_1"/>
    </person>
    <person id="pedestrian105" depart="315.00">
        <walk edges="RidGa_1_1 TorPl_2_2 TorPl_2_1 MalSt_1_1"/>
    </person>
    <person id="pedestrian106" depart="318.00">
        <walk edges="HunSt_2_1 TorPl_1_2 CheMe_2_1"/>
    </person>
    <person id="pedestrian107" depart="325.00">
        <walk edges="CheMe_1_1 TorPl_1_3 TorPl_1_4 BynPl_1_1 BynPl_1_2 BynPl_1_3 GorSq_1_2 GorSq_1_3"/>
    </person>
    <person id="pedestrian108" depart="325.00">
        <walk edges="MalPl_1_1 TorPl_1_4 TorPl_1_3 TorPl_1_2 TorPl_2_4"/>
    </person>
    <person id="pedestrian109" depart="327.00">
        <walk edges="RidGa_2_1 TorPl_2_3 TorPl_2_4"/>
    </person>
    <person id="pedestrian110" depart="337.00">
        <walk edges="GowSt_2_1 TorPl_1_4 BynPl_1_1 BynPl_1_2 BynPl_1_3 GorSq_1_2 GorSq_1_3"/>
    </person>
    <person id="pedestrian111" depart="338.00">
        <walk edges="HunSt_1_1 TorPl_1_2 TorPl_1_3 TorPl_1_4 MalSt_1_1"/>
    </person>
    <person id="pedestrian112" depart="345.00">
        <walk edges="RidGa_1_1"/>
    </person>
    <person id="pedestrian113" depart="346.00">
        <walk edges="GorSq_1_1 BynPl_1_3 BynPl_1_2 BynPl_1_1 TorPl_1_4 TorPl_2_2 RidGa_1_1"/>
    </person>
    <person id="pedestrian114" depart="346.00">
        <walk edges="MalPl_1_1 TorPl_1_4 TorPl_1_3 TorPl_1_2 HunSt_2_2"/>
    </person>
    <person id="pedestrian115" depart="351.00">
        <walk edges="GowSt_1_1 TorPl_2_2 TorPl_2_3 HunSt_1_2"/>
    </person>
    <person id="pedestrian116" depart="356.00">
        <walk edges="MalPl_1_1 TorPl_1_4 TorPl_2_2 TorPl_2_3 HunSt_1_2"/>
    </person>
    <person id="pedestrian117" depart="358.00">
        <walk edges="GowSt_1_1 TorPl_1_4 MalPl_2_1"/>
    </person>
    <person id="pedestrian118" depart="362.00">
        <walk edges="GorSq_2_1 GorSq_2_2 BynPl_2_1 BynPl_2_2 BynPl_2_3 TorPl_2_1 TorPl_2_2 TorPl_2_3 TorPl_2_4"/>
    </person>
    <person id="pedestrian119" depart="364.00">
        <walk edges="RidGa_2_1 TorPl_2_3 HunSt_2_2"/>
    </person>
    <person id="pedestrian120" depart="367.00">
        <walk edges="RidGa_2_1 TorPl_2_2 TorPl_1_4 MalPl_2_1"/>
    </person>
    <person id="pedestrian121" depart="370.00">
        <walk edges="RidGa_1_1 TorPl_2_2 GowSt_1_2"/>
    </person>
    <person id="pedestrian122" depart="374.00">
        <walk edges="HunSt_1_1 TorPl_1_2 TorPl_1_3 TorPl_1_4 MalPl_1_1"/>
    </person>
    <person id="pedestrian123" depart="377.00">
        <walk edges="MalPl_2_1 MalSt_1_1"/>
    </person>
    <person id="pedestrian124" depart="382.00">
        <walk edges="RidGa_2_1 TorPl_2_2 GowSt_2_2"/>
    </person>
    <person id="pedestrian125" depart="396.00">
        <walk edges="RidGa_2_1 RidGa_1_1"/>
    </person>
    <person id="pedestrian126" depart="397.00">
        <walk edges="CheMe_2_1 TorPl_1_2 TorPl_2_4"/>
    </person>
    <person id="pedestrian127" depart="397.00">
        <walk edges="HunSt_2_1 HunSt_2_2"/>
    </person>
    <person id="pedestrian128" depart="399.00">
        <walk edges="RidGa_2_1 TorPl_2_3 HunSt_1_2"/>
    </person>
    <person id="pedestrian129" depart="404.00">
        <walk edges="GowSt_2_1 GowSt_2_2"/>
    </person>
    <person id="pedestrian130" depart="408.00">
        <walk edges="RidGa_2_1 TorPl_2_3 HunSt_2_2"/>
    </person>
    <person id="pedestrian131" depart="409.00">
        <walk edges="GowSt_1_1 TorPl_1_4 BynPl_1_1 BynPl_1_2 BynPl_1_3 GorSq_1_2 GorSq_1_3"/>
    </person>
    <person id="pedestrian132" depart="410.00">
        <walk edges="HunSt_2_1 TorPl_1_2 TorPl_1_3 TorPl_1_4 MalPl_2_1"/>
    </person>
    <person id="pedestrian133" depart="410.00">
        <walk edges="GowSt_2_1 TorPl_1_3 CheMe_2_1"/>
    </person>
    <person id="pedestrian134" depart="413.00">
        <walk edges="MalPl_2_1 TorPl_1_4 GowSt_2_2"/>
    </person>
    <person id="pedestrian135" depart="416.00">
        <walk edges="CheMe_2_1"/>
    </person>
    <person id="pedestrian136" depart="417.00">
        <walk edges="GorSq_1_1 BynPl_1_3 BynPl_1_2 BynPl_1_1 TorPl_1_4 TorPl_1_3 TorPl_1_2 TorPl_2_4"/>
    </person>
    <person id="pedestrian137" depart="421.00">
        <walk edges="GorSq_1_1 BynPl_1_3 BynPl_2_2 BynPl_2_3 MalSt_1_1"/>
    </person>
    <person id="pedestrian138" depart="421.00">
        <walk edges="GowSt_1_1 TorPl_1_4 BynPl_1_1 BynPl_1_2 BynPl_1_3 GorSq_2_3"/>
    </person>
    <person id="pedestrian139" depart="423.00">
        <walk edges="GowSt_2_1 TorPl_1_4 MalPl_1_1"/>
    </person>
    <person id="pedestrian140" depart="424.00">
        <walk edges="HunSt_2_2 TorPl_2_3 TorPl_2_2 GowSt_1_2"/>
    </person>
    <person id="pedestrian141" depart="425.00">
        <walk edges="MalPl_1_1 TorPl_1_4 TorPl_1_3 TorPl_1_2 TorPl_2_4"/>
    </person>
    <person id="pedestrian142" depart="426.00">
        <walk edges="MalPl_1_1 MalPl_2_1"/>
    </person>
    <person id="pedestrian143" depart="426.00">
        <walk edges="MalPl_2_1 TorPl_1_4 TorPl_1_3 CheMe_2_1"/>
    </person>
    <person id="pedestrian144" depart="427.00">
        <walk edges="HunSt_1_1 TorPl_1_2 TorPl_1_3 TorPl_1_4 MalPl_1_1"/>
    </person>
    <person id="pedestrian145" depart="429.00">
        <walk edges="GorSq_1_1 BynPl_1_3 BynPl_2_2 BynPl_2_3 MalSt_1_1"/>
    </person>
    <person id="pedestrian146" depart="432.00">
        <walk edges="MalPl_2_1 BynPl_1_1 BynPl_1_2 BynPl_1_3 GorSq_1_2 GorSq_1_3"/>
    </person>
    <person id="pedestrian147" depart="432.00">
        <walk edges="GorSq_2_1 GorSq_2_2 BynPl_2_1 BynPl_2_2 BynPl_1_1 TorPl_1_4 TorPl_1_3 CheMe_2_1"/>
    </person>
    <person id="pedestrian148" depart="433.00">
        <walk edges="CheMe_2_1"/>
    </person>
    <person id="pedestrian149" depart="435.00">
        <walk edges="MalSt_2_1 BynPl_2_3 BynPl_2_2 BynPl_1_3 GorSq_2_3"/>
    </person>
    <person id="pedestrian150" depart="439.00">
        <walk edges="MalPl_1_1 MalSt_1_1"/>
    </person>
    <person id="pedestrian151" depart="440.00">
        <walk edges="HunSt_2_2 TorPl_1_2 CheMe_2_1"/>
    </person>
    <person id="pedestrian152" depart="441.00">
        <walk edges="HunSt_2_1 TorPl_2_3 TorPl_2_2 TorPl_2_1 MalSt_1_1"/>
    </person>
    <person id="pedestrian153" depart="441.00">
        <walk edges="TorPl_1_1 HunSt_2_2"/>
    </person>
    <person id="pedestrian154" depart="442.00">
        <walk edges="CheMe_1_1 TorPl_1_3 TorPl_1_4 MalPl_2_1"/>
    </person>
    <person id="pedestrian155" depart="445.00">
        <walk edges="MalPl_2_1 TorPl_1_4 TorPl_1_3 CheMe_2_1"/>
    </person>
    <person id="pedestrian156" depart="451.00">
        <walk edges="GowSt_2_1 TorPl_1_4 BynPl_1_1 BynPl_1_2 BynPl_1_3 GorSq_1_2 GorSq_1_3"/>
    </person>
    <person id="pedestrian157" depart="452.00">
        <walk edges="CheMe_1_1 TorPl_1_3 TorPl_1_4 MalPl_2_1"/>
    </person>
    <person id="pedestrian158" depart="454.00">
        <walk edges="RidGa_2_1 TorPl_2_3 TorPl_2_4"/>
    </person>
    <person id="pedestrian159" depart="456.00">
        <walk edges="RidGa_2_1 TorPl_2_3 HunSt_1_2"/>
    </person>
    <person id="pedestrian160" depart="457.00">
        <walk edges="RidGa_1_1 TorPl_2_3 HunSt_1_2"/>
    </person>
    <person id="pedestrian161" depart="458.00">
        <walk edges="HunSt_2_2 TorPl_1_2 TorPl_1_3 TorPl_1_4 BynPl_1_1 BynPl_1_2 BynPl_1_3 GorSq_1_2 GorSq_1_3"/>
    </person>
    <person id="pedestrian162" depart="460.00">
        <walk edges="GowSt_2_1 TorPl_2_2 TorPl_2_3 HunSt_2_2"/>
    </person>
    <person id="pedestrian163" depart="465.00">
        <walk edges="MalPl_2_1 TorPl_1_4 TorPl_1_3 CheMe_2_1"/>
    </person>
    <person id="pedestrian164" depart="465.00">
        <walk edges="RidGa_2_1 TorPl_2_2 GowSt_1_2"/>
    </person>
    <person id="pedestrian165" depart="466.00">
        <walk edges="CheMe_1_1 TorPl_1_3 TorPl_1_4 BynPl_1_1 BynPl_1_2 BynPl_1_3 GorSq_1_2 GorSq_1_3"/>
    </person>
    <person id="pedestrian166" depart="471.00">
        <walk edges="RidGa_1_1 TorPl_2_3 TorPl_2_4"/>
    </person>
    <person id="pedestrian167" depart="475.00">
        <walk edges="RidGa_1_1 TorPl_2_3 TorPl_2_4"/>
    </person>
    <person id="pedestrian168" depart="475.00">
        <walk edges="GorSq_1_1 BynPl_1_3 BynPl_1_2 BynPl_1_1 TorPl_1_4 TorPl_2_2 TorPl_2_3 HunSt_1_2"/>
    </person>
    <person id="pedestrian169" depart="475.00">
        <walk edges="TorPl_1_1 TorPl_1_2 TorPl_1_3 TorPl_1_4 BynPl_1_1 BynPl_1_2 BynPl_1_3 GorSq_2_3"/>
    </person>
    <person id="pedestrian170" depart="476.00">
        <walk edges="GowSt_1_1 TorPl_2_2 RidGa_1_1"/>
    </person>
    <person id="pedestrian171" depart="476.00">
        <walk edges="TorPl_1_1 TorPl_1_2 TorPl_1_3 TorPl_1_4 BynPl_1_1 BynPl_1_2 BynPl_1_3 GorSq_1_2 GorSq_1_3"/>
    </person>
    <person id="pedestrian172" depart="483.00">
        <walk edges="CheMe_1_1 CheMe_2_1"/>
    </person>
    <person id="pedestrian173" depart="487.00">
        <walk edges="GowSt_2_1 GowSt_1_2"/>
    </person>
    <person id="pedestrian174" depart="489.00">
        <walk edges="MalPl_1_1 TorPl_1_4 TorPl_2_2 TorPl_2_3 HunSt_1_2"/>
    </person>
    <person id="pedestrian175" depart="494.00">
        <walk edges="RidGa_1_1 TorPl_2_3 HunSt_1_2"/>
    </person>
    <person id="pedestrian176" depart="500.00">
        <walk edges="MalSt_2_1 MalPl_1_1"/>
    </person>
    <person id="pedestrian177" depart="505.00">
        <walk edges="GowSt_1_1 TorPl_1_4 MalSt_1_1"/>
    </person>
    <person id="pedestrian178" depart="507.00">
        <walk edges="TorPl_1_1 TorPl_1_2 TorPl_1_3 TorPl_1_4 BynPl_1_1 BynPl_1_2 BynPl_1_3 GorSq_1_2 GorSq_1_3"/>
    </person>
    <person id="pedestrian179" depart="513.00">
        <walk edges="HunSt_1_1 TorPl_1_2 TorPl_1_3 TorPl_1_4 MalPl_1_1"/>
    </person>
    <person id="pedestrian180" depart="514.00">
        <walk edges="HunSt_2_1 TorPl_2_3 RidGa_1_1"/>
    </person>
    <person id="pedestrian181" depart="517.00">
        <walk edges="CheMe_2_1 TorPl_1_3 TorPl_1_4 BynPl_1_1 BynPl_1_2 BynPl_1_3 GorSq_1_2 GorSq_1_3"/>
    </person>
    <person id="pedestrian182" depart="522.00">
        <walk edges="TorPl_1_1 HunSt_1_2"/>
    </person>
    <person id="pedestrian183" depart="526.00">
        <walk edges="MalPl_2_1 TorPl_1_4 GowSt_1_2"/>
    </person>
    <person id="pedestrian184" depart="529.00">
        <walk edges="CheMe_1_1 TorPl_1_2 TorPl_2_3 RidGa_1_1"/>
    </person>
    <person id="pedestrian185" depart="531.00">
        <walk edges="GorSq_2_1 GorSq_2_2 BynPl_2_1 BynPl_2_2 BynPl_2_3 TorPl_2_1 TorPl_2_2 TorPl_2_3 TorPl_2_4"/>
    </person>
    <person id="pedestrian186" depart="545.00">
        <walk edges="MalSt_2_1 TorPl_2_1 TorPl_2_2 TorPl_2_3 TorPl_2_4"/>
    </person>
    <person id="pedestrian187" depart="552.00">
        <walk edges="MalSt_2_1 TorPl_2_1 TorPl_2_2 TorPl_2_3 HunSt_1_2"/>
    </person>
    <person id="pedestrian188" depart="553.00">
        <walk edges="HunSt_2_1 TorPl_2_4"/>
    </person>
    <person id="pedestrian189" depart="558.00">
        <walk edges="RidGa_2_1 TorPl_2_3 TorPl_2_4"/>
    </person>
    <person id="pedestrian190" depart="558.00">
        <walk edges="GowSt_2_1 TorPl_1_4 MalPl_2_1"/>
    </person>
    <person id="pedestrian191" depart="559.00">
        <walk edges="MalSt_2_1 MalPl_1_1"/>
    </person>
    <person id="pedestrian192" depart="560.00">
        <walk edges="HunSt_2_1 TorPl_1_2 TorPl_1_3 TorPl_1_4 BynPl_1_1 BynPl_1_2 BynPl_1_3 GorSq_1_2 GorSq_1_3"/>
    </person>
    <person id="pedestrian193" depart="560.00">
        <walk edges="GorSq_2_1 GorSq_2_2 BynPl_2_1 BynPl_2_2 BynPl_2_3 TorPl_2_1 TorPl_2_2 TorPl_2_3 HunSt_1_2"/>
    </person>
    <person id="pedestrian194" depart="566.00">
        <walk edges="HunSt_2_2 TorPl_2_3 TorPl_2_2 GowSt_1_2"/>
    </person>
    <person id="pedestrian195" depart="566.00">
        <walk edges="HunSt_1_1 HunSt_2_2"/>
    </person>
    <person id="pedestrian196" depart="569.00">
        <walk edges="HunSt_1_1 TorPl_2_3 RidGa_1_1"/>
    </person>
    <person id="pedestrian197" depart="572.00">
        <walk edges="GowSt_2_1 TorPl_1_4 MalPl_2_1"/>
    </person>
    <person id="pedestrian198" depart="572.00">
        <walk edges="MalPl_2_1 TorPl_1_4 TorPl_1_3 TorPl_1_2 HunSt_2_2"/>
    </person>
    <person id="pedestrian199" depart="576.00">
        <walk edges="GorSq_1_1 BynPl_1_3 BynPl_2_2 BynPl_2_3 MalSt_1_1"/>
    </person>
    <person id="pedestrian200" depart="576.00">
        <walk edges="CheMe_2_1"/>
    </person>
    <person id="pedestrian201" depart="580.00">
        <walk edges="GowSt_2_1 TorPl_2_2 TorPl_2_3 HunSt_2_2"/>
    </person>
    <person id="pedestrian202" depart="582.00">
        <walk edges="MalPl_1_1 TorPl_1_4 GowSt_1_2"/>
    </person>
    <person id="pedestrian203" depart="583.00">
        <walk edges="HunSt_2_1 HunSt_2_2"/>
    </person>
    <person id="pedestrian204" depart="584.00">
        <walk edges="MalPl_1_1 MalPl_2_1"/>
    </person>
    <person id="pedestrian205" depart="605.00">
        <walk edges="RidGa_1_1 TorPl_2_3 TorPl_2_4"/>
    </person>
    <person id="pedestrian206" depart="607.00">
        <walk edges="HunSt_2_2 TorPl_2_3 TorPl_2_2 GowSt_1_2"/>
    </person>
    <person id="pedestrian207" depart="609.00">
        <walk edges="RidGa_1_1 TorPl_2_2 GowSt_1_2"/>
    </person>
    <person id="pedestrian208" depart="612.00">
        <walk edges="GorSq_1_1 BynPl_1_3 BynPl_1_2 BynPl_1_1 MalPl_2_1"/>
    </person>
    <person id="pedestrian209" depart="626.00">
        <walk edges="RidGa_2_1 TorPl_2_2 TorPl_1_4 BynPl_1_1 BynPl_1_2 BynPl_1_3 GorSq_1_2 GorSq_1_3"/>
    </person>
    <person id="pedestrian210" depart="636.00">
        <walk edges="CheMe_1_1 TorPl_1_2 HunSt_1_2"/>
    </person>
    <person id="pedestrian211" depart="641.00">
        <walk edges="MalPl_1_1 MalPl_2_1"/>
    </person>
    <person id="pedestrian212" depart="642.00">
        <walk edges="MalPl_1_1 BynPl_1_1 BynPl_1_2 BynPl_1_3 GorSq_1_2 GorSq_1_3"/>
    </person>
    <person id="pedestrian213" depart="651.00">
        <walk edges="MalPl_1_1 TorPl_1_4 TorPl_2_2 TorPl_2_3 HunSt_1_2"/>
    </person>
    <person id="pedestrian214" depart="655.00">