<?xml version="1.0" encoding="UTF-8"?>

<!-- generated on 2025-11-24 14:59:35.132296 by Eclipse SUMO randomTrips.py UNKNOWN
<configuration>
    <net-file value="../networks/demo/main.net.xml"/>
    <output-trip-file value="../routes/demo/5/pedestrian.trips.xml"/>
    <route-file value="../routes/demo/5/pedestrian.rou.xml"/>
    <pedestrians value="True"/>
    <prefix value="pedestrian"/>
    <seed value="5"/>
    <period value="5.0"/>
    <binomial value="100"/>
</configuration>
-->

<!-- generated on 2025-11-24T14:59:35.119396+00:00 by Eclipse SUMO duarouter 1.25.0
<duarouterConfiguration xmlns:xsi="http://www.w3.org/2001/XMLSchema-instance" xsi:noNamespaceSchemaLocation="http://sumo.dlr.de/xsd/duarouterConfiguration.xsd">

    <input>
        <net-file value="../networks/demo/main.net.xml"/>
        <route-files value="../routes/demo/5/pedestrian.trips.xml"/>
    </input>

    <output>
        <output-file value="../routes/demo/5/pedestrian.rou.xml"/>
        <alternatives-output value="NUL"/>
    </output>

    <time>
        <begin value="0"/>
        <end value="3600.0"/>
    </time>

    <report>
        <no-warnings value="true"/>
        <ignore-errors value="true"/>
        <no-step-log value="true"/>
    </report>

</duarouterConfiguration>
-->

<routes xmlns:xsi="http://www.w3.org/2001/XMLSchema-instance" xsi:noNamespaceSchemaLocation="http://sumo.dlr.de/xsd/routes_file.xsd">
    <person id="pedestrian0" depart="0.00">
        <walk edges="TorPl_1_4 TorPl_1_3 CheMe_2_1"/>
    </person>
    <person id="pedestrian1" depart="2.00">
        <walk edges="GowSt_1_1 TorPl_1_4 BynPl_1_1 BynPl_1_2 BynPl_1_3 GorSq_1_2 GorSq_1_3"/>
    </person>
    <person id="pedestrian2" depart="2.00">
        <walk edges="BynPl_2_1 BynPl_2_2 BynPl_2_3 TorPl_2_1 TorPl_2_2 TorPl_2_3 HunSt_2_1"/>
    </person>
    <person id="pedestrian3" depart="4.00">
        <walk edges="GowSt_2_1 TorPl_2_1"/>
    </person>
    <person id="pedestrian4" depart="10.00">
        <walk edges="RidGa_2_1 TorPl_2_3 HunSt_1_1"/>
    </person>
    <person id="pedestrian5" depart="11.00">
        <walk edges="TorPl_2_2 TorPl_2_1 BynPl_2_3 BynPl_2_2 BynPl_2_1 GorSq_2_2 GorSq_2_1"/>
    </person>
    <person id="pedestrian6" depart="11.00">
        <walk edges="TorPl_1_1 TorPl_2_3 RidGa_2_1"/>
    </person>
    <person id="pedestrian7" depart="16.00">
        <walk edges="BynPl_2_2 BynPl_2_3"/>
    </person>
    <person id="pedestrian8" depart="19.00">
        <walk edges="GorSq_2_3 GorSq_1_2"/>
    </person>
    <person id="pedestrian9" depart="33.00">
        <walk edges="BynPl_1_2 BynPl_1_1 TorPl_1_4 TorPl_2_2 RidGa_1_1"/>
    </person>
    <person id="pedestrian10" depart="36.00">
        <walk edges="MalSt_1_1 BynPl_2_3 BynPl_2_2 BynPl_1_3 GorSq_2_3"/>
    </person>
    <person id="pedestrian11" depart="43.00">
        <walk edges="CheMe_1_1 TorPl_1_2 TorPl_2_3 RidGa_1_1"/>
    </person>
    <person id="pedestrian12" depart="52.00">
        <walk edges="TorPl_2_1 BynPl_2_3 BynPl_2_2 BynPl_1_3 GorSq_2_3"/>
    </person>
    <person id="pedestrian13" depart="60.00">
        <walk edges="BynPl_1_3 GorSq_1_2"/>
    </person>
    <person id="pedestrian14" depart="70.00">
        <walk edges="GowSt_2_2 TorPl_1_4 MalSt_1_1"/>
    </person>
    <person id="pedestrian15" depart="71.00">
        <walk edges="GorSq_1_3 GorSq_1_2 BynPl_1_3 BynPl_1_2"/>
    </person>
    <person id="pedestrian16" depart="84.00">
        <walk edges="TorPl_2_2 TorPl_1_4 BynPl_1_1 BynPl_1_2"/>
    </person>
    <person id="pedestrian17" depart="88.00">
        <walk edges="GowSt_2_2 TorPl_1_4 MalPl_2_1"/>
    </person>
    <person id="pedestrian18" depart="92.00">
        <walk edges="MalSt_1_1 TorPl_2_1 GowSt_1_2"/>
    </person>
    <person id="pedestrian19" depart="97.00">
        <walk edges="HunSt_2_2 TorPl_1_2 TorPl_1_3 TorPl_1_4 BynPl_1_1 BynPl_2_2 BynPl_2_1 GorSq_2_2 GorSq_2_1"/>
    </person>
    <person id="pedestrian20" depart="103.00">
        <walk edges="TorPl_1_2 TorPl_1_3 TorPl_1_4 BynPl_1_1 BynPl_1_2 BynPl_1_3 GorSq_1_2 GorSq_1_3"/>
    </person>
    <person id="pedestrian21" depart="103.00">
        <walk edges="HunSt_2_2 TorPl_1_2 TorPl_1_3 TorPl_1_4 MalPl_2_1"/>
    </person>
    <person id="pedestrian22" depart="105.00">
        <walk edges="GorSq_1_1 BynPl_1_3 BynPl_1_2 BynPl_1_1 MalPl_2_1"/>
    </person>
    <person id="pedestrian23" depart="106.00">
        <walk edges="GorSq_1_3 GorSq_1_2 BynPl_1_3 BynPl_1_2 BynPl_1_1 TorPl_1_4 TorPl_1_3 TorPl_1_2 HunSt_1_1"/>
    </person>
    <person id="pedestrian24" depart="108.00">
        <walk edges="GorSq_2_1 GorSq_2_2 BynPl_2_1 BynPl_2_2 BynPl_2_3 TorPl_2_1 TorPl_2_2 RidGa_2_1"/>
    </person>
    <person id="pedestrian25" depart="109.00">
        <walk edges="HunSt_1_2 TorPl_2_3 TorPl_2_2 TorPl_1_4 BynPl_1_1 BynPl_1_2 BynPl_1_3"/>
    </person>
    <person id="pedestrian26" depart="116.00">
        <walk edges="BynPl_2_3 TorPl_2_1 TorPl_2_2 TorPl_2_3 HunSt_1_2"/>
    </person>
    <person id="pedestrian27" depart="116.00">
        <walk edges="CheMe_1_1 TorPl_1_3 TorPl_1_4 BynPl_1_1 BynPl_1_2 BynPl_1_3 GorSq_2_3"/>
    </person>
    <person id="pedestrian28" depart="125.00">
        <walk edges="TorPl_2_1 MalPl_1_1"/>
    </person>
    <person id="pedestrian29" depart="130.00">
        <walk edges="GorSq_2_2 GorSq_1_3"/>
    </person>
    <person id="pedestrian30" depart="130.00">
        <walk edges="TorPl_2_3 TorPl_2_2 GowSt_2_1"/>
    </person>
    <person id="pedestrian31" depart="134.00">
        <walk edges="GorSq_2_2 BynPl_2_1 BynPl_2_2 BynPl_2_3"/>
    </person>
    <person id="pedestrian32" depart="138.00">
        <walk edges="TorPl_2_3 TorPl_2_2 GowSt_1_2"/>
    </person>
    <person id="pedestrian33" depart="141.00">
        <walk edges="GorSq_2_2 BynPl_2_1 BynPl_2_2 BynPl_1_1 TorPl_1_4 TorPl_1_3 CheMe_2_1"/>
    </person>
    <person id="pedestrian34" depart="142.00">
        <walk edges="RidGa_1_1 TorPl_2_2 TorPl_2_1 BynPl_2_3 BynPl_2_2 BynPl_2_1"/>
    </person>
    <person id="pedestrian35" depart="152.00">
        <walk edges="TorPl_2_3 HunSt_2_1"/>
    </person>
    <person id="pedestrian36" depart="155.00">
        <walk edges="GorSq_2_2 BynPl_2_1 BynPl_2_2 BynPl_2_3 TorPl_2_1 TorPl_2_2 TorPl_2_3"/>
    </person>
    <person id="pedestrian37" depart="158.00">
        <walk edges="BynPl_1_3 BynPl_1_2 BynPl_1_1 TorPl_1_4 TorPl_1_3 TorPl_1_2 TorPl_1_1"/>
    </person>
    <person id="pedestrian38" depart="164.00">
        <walk edges="BynPl_1_1"/>
    </person>
    <person id="pedestrian39" depart="170.00">
        <walk edges="GorSq_1_1 BynPl_1_3 BynPl_1_2 BynPl_1_1 TorPl_1_4 TorPl_1_3 TorPl_1_2"/>
    </person>
    <person id="pedestrian40" depart="178.00">
        <walk edges="GowSt_1_2 TorPl_2_1 BynPl_2_3 BynPl_2_2 BynPl_2_1 GorSq_2_2"/>
    </person>
    <person id="pedestrian41" depart="185.00">
        <walk edges="TorPl_2_4 TorPl_1_2 TorPl_1_3"/>
    </person>
    <person id="pedestrian42" depart="186.00">
        <walk edges="GorSq_1_3 GorSq_1_2 BynPl_1_3 BynPl_2_2 BynPl_2_3 MalSt_2_1"/>
    </person>
    <person id="pedestrian43" depart="192.00">
        <walk edges="TorPl_2_3 HunSt_2_2"/>
    </person>
    <person id="pedestrian44" depart="195.00">
        <walk edges="GorSq_1_2 BynPl_1_3"/>
    </person>
    <person id="pedestrian45" depart="197.00">
        <walk edges="MalSt_2_1 TorPl_2_1 GowSt_1_1"/>
    </person>
    <person id="pedestrian46" depart="201.00">
        <walk edges="TorPl_1_4 TorPl_1_3 CheMe_2_1"/>
    </person>
    <person id="pedestrian47" depart="206.00">
        <walk edges="GorSq_1_3 GorSq_1_2 BynPl_1_3 BynPl_1_2 BynPl_1_1 TorPl_1_4 TorPl_2_2 TorPl_2_3"/>
    </person>
    <person id="pedestrian48" depart="207.00">
        <walk edges="GorSq_1_3 GorSq_1_2 BynPl_1_3 BynPl_1_2 BynPl_1_1 TorPl_1_4 TorPl_1_3 TorPl_1_2 HunSt_2_2"/>
    </person>
    <person id="pedestrian49" depart="209.00">
        <walk edges="HunSt_1_2 TorPl_2_3 TorPl_2_2 TorPl_2_1 BynPl_2_3 BynPl_2_2"/>
    </person>
    <person id="pedestrian50" depart="209.00">
        <walk edges="TorPl_2_3 TorPl_2_2 TorPl_2_1 BynPl_2_3"/>
    </person>
    <person id="pedestrian51" depart="217.00">
        <walk edges="MalSt_2_1 TorPl_2_1 GowSt_1_1"/>
    </person>
    <person id="pedestrian52" depart="220.00">
        <walk edges="RidGa_1_1 TorPl_2_3 HunSt_2_2"/>
    </person>
    <person id="pedestrian53" depart="224.00">
        <walk edges="MalPl_1_1 BynPl_1_1 BynPl_1_2 BynPl_1_3 GorSq_1_2"/>
    </person>
    <person id="pedestrian54" depart="229.00">
        <walk edges="HunSt_2_2 TorPl_1_2 TorPl_1_3 GowSt_2_2"/>
    </person>
    <person id="pedestrian55" depart="230.00">
        <walk edges="TorPl_2_2 TorPl_1_4 BynPl_1_1"/>
    </person>
    <person id="pedestrian56" depart="232.00">
        <walk edges="BynPl_1_3 BynPl_1_2 BynPl_1_1 TorPl_1_4 TorPl_1_3 TorPl_1_2 TorPl_1_1"/>
    </person>
    <person id="pedestrian57" depart="233.00">
        <walk edges="HunSt_2_1 TorPl_1_2 TorPl_1_3 TorPl_1_4 BynPl_1_1 BynPl_1_2 BynPl_1_3 GorSq_1_2"/>
    </person>
    <person id="pedestrian58" depart="242.00">
        <walk edges="HunSt_1_2 TorPl_1_2 TorPl_1_3"/>
    </person>
    <person id="pedestrian59" depart="244.00">
        <walk edges="GorSq_1_2 BynPl_1_3 BynPl_1_2 BynPl_1_1 TorPl_1_4 TorPl_1_3"/>
    </person>
    <person id="pedestrian60" depart="247.00">
        <walk edges="BynPl_2_3 TorPl_2_1 GowSt_1_2"/>
    </person>
    <person id="pedestrian61" depart="248.00">
        <walk edges="HunSt_2_2 TorPl_2_3 TorPl_2_2 TorPl_2_1 MalSt_2_1"/>
    </person>
    <person id="pedestrian62" depart="250.00">
        <walk edges="RidGa_2_1 TorPl_2_2 TorPl_1_4 MalPl_2_1"/>
    </person>
    <person id="pedestrian63" depart="251.00">
        <walk edges="BynPl_2_3 TorPl_2_1 GowSt_2_1"/>
    </person>
    <person id="pedestrian64" depart="264.00">
        <walk edges="CheMe_2_1 TorPl_1_3 TorPl_2_1"/>
    </person>
    <person id="pedestrian65" depart="268.00">
        <walk edges="MalSt_1_1 MalSt_2_1"/>
    </person>
    <person id="pedestrian66" depart="270.00">
        <walk edges="BynPl_1_1 BynPl_1_2 BynPl_1_3 GorSq_1_2 GorSq_1_3"/>
    </person>
    <person id="pedestrian67" depart="273.00">
        <walk edges="TorPl_2_3 RidGa_2_1"/>
    </person>
    <person id="pedestrian68" depart="275.00">
        <walk edges="GowSt_1_2 TorPl_1_4 BynPl_1_1 BynPl_1_2 BynPl_1_3"/>
    </person>
    <person id="pedestrian69" depart="280.00">
        <walk edges="TorPl_1_4 TorPl_2_1 MalSt_2_1"/>
    </person>
    <person id="pedestrian70" depart="284.00">
        <walk edges="MalSt_1_1 TorPl_1_4"/>
    </person>
    <person id="pedestrian71" depart="288.00">
        <walk edges="MalSt_2_1 TorPl_2_1 GowSt_1_2"/>
    </person>
    <person id="pedestrian72" depart="296.00">
        <walk edges="GorSq_1_2 GorSq_1_1"/>
    </person>
    <person id="pedestrian73" depart="297.00">
        <walk edges="GorSq_2_3 BynPl_1_3 BynPl_1_2 BynPl_1_1 TorPl_1_4 TorPl_1_3"/>
    </person>
    <person id="pedestrian74" depart="306.00">
        <walk edges="BynPl_1_1 TorPl_1_4 TorPl_1_3 TorPl_1_2 HunSt_2_2"/>
    </person>
    <person id="pedestrian75" depart="315.00">
        <walk edges="GowSt_2_2 TorPl_2_2 TorPl_2_3"/>
    </person>
    <person id="pedestrian76" depart="317.00">
        <walk edges="RidGa_1_1 TorPl_2_2 TorPl_2_1 MalSt_1_1"/>
    </person>
    <person id="pedestrian77" depart="317.00">
        <walk edges="GorSq_2_1 GorSq_2_2 BynPl_2_1 BynPl_2_2 BynPl_2_3 TorPl_2_1 GowSt_1_2"/>
    </person>
    <person id="pedestrian78" depart="319.00">
        <walk edges="TorPl_1_3 TorPl_1_4 BynPl_1_1 BynPl_1_2"/>
    </person>
    <person id="pedestrian79" depart="320.00">
        <walk edges="RidGa_2_1 TorPl_2_2 TorPl_2_1 BynPl_2_3 BynPl_2_2"/>
    </person>
    <person id="pedestrian80" depart="321.00">
        <walk edges="BynPl_2_2 BynPl_1_3 GorSq_1_2"/>
    </person>
    <person id="pedestrian81" depart="326.00">
        <walk edges="HunSt_2_1 TorPl_1_2 TorPl_1_3 TorPl_1_4 BynPl_1_1 BynPl_1_2"/>
    </person>
    <person id="pedestrian82" depart="328.00">
        <walk edges="BynPl_2_2 BynPl_1_1 MalPl_2_1"/>
    </person>
    <person id="pedestrian83" depart="333.00">
        <walk edges="TorPl_2_4"/>
    </person>
    <person id="pedestrian84" depart="343.00">
        <walk edges="GowSt_2_1 TorPl_1_4 MalPl_1_1"/>
    </person>
    <person id="pedestrian85" depart="347.00">
        <walk edges="GorSq_2_1 GorSq_1_3"/>
    </person>
    <person id="pedestrian86" depart="356.00">
        <walk edges="BynPl_1_2 BynPl_1_1"/>
    </person>
    <person id="pedestrian87" depart="366.00">
        <walk edges="TorPl_1_3 TorPl_1_2 TorPl_2_4"/>
    </person>
    <person id="pedestrian88" depart="370.00">
        <walk edges="RidGa_1_1 TorPl_2_2 TorPl_1_4 BynPl_1_1 BynPl_1_2 BynPl_1_3 GorSq_1_2 GorSq_1_3"/>
    </person>
    <person id="pedestrian89" depart="373.00">
        <walk edges="TorPl_1_3 TorPl_1_2 HunSt_1_2"/>
    </person>
    <person id="pedestrian90" depart="376.00">
        <walk edges="TorPl_1_1 TorPl_1_2 TorPl_1_3 TorPl_1_4 BynPl_1_1 BynPl_2_2"/>
    </person>
    <person id="pedestrian91" depart="378.00">
        <walk edges="TorPl_1_3 TorPl_1_4 BynPl_1_1 BynPl_2_2 BynPl_2_1 GorSq_2_2 GorSq_2_1"/>
    </person>
    <person id="pedestrian92" depart="379.00">
        <walk edges="HunSt_2_2 TorPl_1_2 TorPl_1_3 TorPl_1_4 BynPl_1_1 BynPl_1_2 BynPl_1_3 GorSq_1_2"/>
    </person>
    <person id="pedestrian93" depart="381.00">
        <walk edges="TorPl_1_3 TorPl_1_4 BynPl_1_1 BynPl_2_2 BynPl_2_1 GorSq_2_2"/>
    </person>
    <person id="pedestrian94" depart="386.00">
        <walk edges="MalPl_1_1"/>
    </person>
    <person id="pedestrian95" depart="390.00">
        <walk edges="GorSq_1_2 BynPl_1_3 BynPl_1_2 BynPl_1_1 TorPl_1_4 TorPl_1_3 TorPl_1_2"/>
    </person>
    <person id="pedestrian96" depart="399.00">
        <walk edges="BynPl_2_2 BynPl_1_3"/>
    </person>
    <person id="pedestrian97" depart="401.00">
        <walk edges="MalPl_2_1 TorPl_1_4 TorPl_1_3 TorPl_1_2 HunSt_2_1"/>
    </person>
    <person id="pedestrian98" depart="401.00">
        <walk edges="TorPl_1_3 TorPl_1_4 BynPl_1_1 BynPl_1_2 BynPl_1_3 GorSq_1_2 GorSq_1_3"/>
    </person>
    <person id="pedestrian99" depart="403.00">
        <walk edges="MalSt_2_1 TorPl_2_1 TorPl_2_2 TorPl_2_3 TorPl_2_4"/>
    </person>
    <person id="pedestrian100" depart="407.00">
        <walk edges="HunSt_2_1 TorPl_2_3 TorPl_2_2"/>
    </person>
    <person id="pedestrian101" depart="410.00">
        <walk edges="BynPl_2_1 BynPl_2_2 BynPl_2_3 TorPl_2_1 GowSt_1_2"/>
    </person>
    <person id="pedestrian102" depart="414.00">
        <walk edges="TorPl_1_1 TorPl_1_2 TorPl_1_3 TorPl_1_4 BynPl_1_1 BynPl_1_2 BynPl_1_3"/>
    </person>
    <person id="pedestrian103" depart="417.00">
        <walk edges="BynPl_1_2 BynPl_2_2"/>
    </person>
    <person id="pedestrian104" depart="419.00">
        <walk edges="GorSq_2_3 BynPl_1_3 BynPl_1_2 BynPl_1_1"/>
    </person>
    <person id="pedestrian105" depart="423.00">
        <walk edges="BynPl_1_3 BynPl_1_2 BynPl_1_1 TorPl_1_4 TorPl_2_2 RidGa_2_1"/>
    </person>
    <person id="pedestrian106" depart="424.00">
        <walk edges="BynPl_2_1 BynPl_2_2 BynPl_2_3 TorPl_2_1 TorPl_2_2 TorPl_2_3"/>
    </person>
    <person id="pedestrian107" depart="428.00">
        <walk edges="HunSt_2_2 TorPl_1_2 TorPl_1_3 TorPl_1_4 MalPl_2_1"/>
    </person>
    <person id="pedestrian108" depart="429.00">
        <walk edges="CheMe_2_1 TorPl_1_2"/>
    </person>
    <person id="pedestrian109" depart="438.00">
        <walk edges="MalSt_1_1 TorPl_2_1 TorPl_2_2 TorPl_2_3 HunSt_1_2"/>
    </person>
    <person id="pedestrian110" depart="444.00">
        <walk edges="BynPl_1_2 BynPl_1_1 TorPl_1_4 TorPl_1_3 TorPl_1_2 HunSt_2_2"/>
    </person>
    <person id="pedestrian111" depart="447.00">
        <walk edges="HunSt_1_1 TorPl_1_2 TorPl_1_3 TorPl_1_4 BynPl_2_3"/>
    </person>
    <person id="pedestrian112" depart="450.00">
        <walk edges="RidGa_2_1 TorPl_2_2"/>
    </person>
    <person id="pedestrian113" depart="452.00">
        <walk edges="TorPl_1_3 TorPl_1_4 BynPl_1_1 BynPl_1_2 BynPl_1_3 GorSq_1_2 GorSq_1_3"/>
    </person>
    <person id="pedestrian114" depart="454.00">
        <walk edges="BynPl_1_1 TorPl_1_4 TorPl_1_3 CheMe_2_1"/>
    </person>
    <person id="pedestrian115" depart="467.00">
        <walk edges="GowSt_2_1 TorPl_1_3 CheMe_1_1"/>
    </person>
    <person id="pedestrian116" depart="472.00">
        <walk edges="GorSq_2_3 BynPl_1_3 BynPl_1_2 BynPl_1_1 TorPl_1_4 GowSt_1_1"/>
    </person>
    <person id="pedestrian117" depart="476.00">
        <walk edges="HunSt_1_1 TorPl_1_2 TorPl_1_3 TorPl_1_4 BynPl_1_1 BynPl_1_2 BynPl_1_3"/>
    </person>
    <person id="pedestrian118" depart="477.00">
        <walk edges="TorPl_1_4 BynPl_1_1 BynPl_2_2 BynPl_2_1"/>
    </person>
    <person id="pedestrian119" depart="488.00">
        <walk edges="BynPl_2_3 TorPl_1_4 TorPl_1_3 TorPl_1_2 HunSt_2_2"/>
    </person>
    <person id="pedestrian120" depart="491.00">
        <walk edges="BynPl_1_3 BynPl_1_2 BynPl_1_1 TorPl_1_4 GowSt_2_2"/>
    </person>
    <person id="pedestrian121" depart="500.00">
        <walk edges="CheMe_1_1 TorPl_1_2 HunSt_1_2"/>
    </person>
    <person id="pedestrian122" depart="501.00">
        <walk edges="TorPl_1_1 TorPl_2_3 TorPl_2_2 TorPl_2_1"/>
    </person>
    <person id="pedestrian123" depart="505.00">
        <walk edges="BynPl_2_1 BynPl_2_2 BynPl_2_3 TorPl_2_1 TorPl_2_2 TorPl_2_3 HunSt_1_2"/>
    </person>
    <person id="pedestrian124" depart="507.00">
        <walk edges="BynPl_1_2 BynPl_1_3 GorSq_2_3"/>
    </person>
    <person id="pedestrian125" depart="521.00">
        <walk edges="TorPl_1_3 TorPl_1_2 TorPl_1_1"/>
    </person>
    <person id="pedestrian126" depart="527.00">
        <walk edges="HunSt_2_1 TorPl_1_2 TorPl_1_3 TorPl_1_4 BynPl_1_1 BynPl_1_2"/>
    </person>
    <person id="pedestrian127" depart="533.00">
        <walk edges="HunSt_1_1 TorPl_2_3 RidGa_2_1"/>
    </person>
    <person id="pedestrian128" depart="541.00">
        <walk edges="GorSq_1_1 GorSq_1_2 GorSq_2_1"/>
    </person>
    <person id="pedestrian129" depart="542.00">
        <walk edges="GorSq_1_1 BynPl_1_3 BynPl_1_2 BynPl_1_1 TorPl_1_4 TorPl_1_3 CheMe_1_1"/>
    </person>
    <person id="pedestrian130" depart="543.00">
        <walk edges="GowSt_2_2 GowSt_1_2"/>
    </person>
    <person id="pedestrian131" depart="555.00">
        <walk edges="GorSq_1_2 BynPl_1_3 BynPl_1_2 BynPl_1_1 TorPl_1_4 TorPl_2_2"/>
    </person>
    <person id="pedestrian132" depart="558.00">
        <walk edges="BynPl_2_3"/>
    </person>
    <person id="pedestrian133" depart="562.00">
        <walk edges="BynPl_2_1"/>
    </person>
    <person id="pedestrian134" depart="568.00">
        <walk edges="HunSt_2_2"/>
    </person>
    <person id="pedestrian135" depart="577.00">
        <walk edges="MalPl_1_1 TorPl_1_4 GowSt_2_1"/>
    </person>
    <person id="pedestrian136" depart="578.00">
        <walk edges="GorSq_1_3 GorSq_1_2"/>
    </person>
    <person id="pedestrian137" depart="579.00">
        <walk edges="BynPl_2_2 BynPl_1_1 MalPl_1_1"/>
    </person>
    <person id="pedestrian138" depart="590.00">
        <walk edges="TorPl_2_1 BynPl_2_3 BynPl_2_2 BynPl_1_3 GorSq_1_2 GorSq_1_3"/>
    </person>
    <person id="pedestrian139" depart="594.00">
        <walk edges="TorPl_1_2 TorPl_2_3"/>
    </person>
    <person id="pedestrian140" depart="604.00">
        <walk edges="HunSt_1_2 TorPl_2_3 TorPl_2_2 TorPl_2_1 MalSt_2_1"/>
    </person>
    <person id="pedestrian141" depart="605.00">
        <walk edges="CheMe_1_1 TorPl_1_3 TorPl_2_2"/>
    </person>
    <person id="pedestrian142" depart="606.00">
        <walk edges="BynPl_2_1 BynPl_2_2 BynPl_1_1 TorPl_1_4 TorPl_1_3 CheMe_1_1"/>
    </person>
    <person id="pedestrian143" depart="608.00">
        <walk edges="TorPl_2_1 MalSt_1_1"/>
    </person>
    <person id="pedestrian144" depart="610.00">
        <walk edges="TorPl_2_1 BynPl_2_3 BynPl_2_2 BynPl_1_3 GorSq_1_2"/>
    </person>
    <person id="pedestrian145" depart="612.00">
        <walk edges="GowSt_1_1 TorPl_1_3 TorPl_1_2 TorPl_2_4"/>
    </person>
    <person id="pedestrian146" depart="615.00">
        <walk edges="GowSt_1_1 TorPl_1_4 BynPl_1_1 BynPl_2_2 BynPl_2_1"/>
    </person>
    <person id="pedestrian147" depart="615.00">
        <walk edges="TorPl_1_2 TorPl_1_3 TorPl_1_4 BynPl_1_1 BynPl_1_2 BynPl_1_3"/>
    </person>
    <person id="pedestrian148" depart="617.00">
        <walk edges="BynPl_1_2 BynPl_1_1 TorPl_1_4 TorPl_2_2"/>
    </person>
    <person id="pedestrian149" depart="617.00">
        <walk edges="RidGa_2_1 TorPl_2_3 TorPl_1_2 CheMe_1_1"/>
    </person>
    <person id="pedestrian150" depart="622.00">
        <walk edges="MalPl_2_1 TorPl_1_4 TorPl_1_3 TorPl_1_2 HunSt_2_1"/>
    </person>
    <person id="pedestrian151" depart="633.00">
        <walk edges="MalSt_1_1 BynPl_2_3 BynPl_2_2 BynPl_1_3 GorSq_1_2"/>
    </person>
    <person id="pedestrian152" depart="635.00">
        <walk edges="TorPl_1_2 TorPl_2_3 RidGa_1_1"/>
    </person>
    <person id="pedestrian153" depart="635.00">
        <walk edges="GorSq_1_1 BynPl_1_3 BynPl_2_2 BynPl_2_3"/>
    </person>
    <person id="pedestrian154" depart="636.00">
        <walk edges="RidGa_1_1 TorPl_2_2 TorPl_1_4 BynPl_1_1 BynPl_1_2"/>
    </person>
    <person id="pedestrian155" depart="643.00">
        <walk edges="TorPl_1_3 TorPl_1_4 MalPl_1_1"/>
    </person>
    <person id="pedestrian156" depart="645.00">
        <walk edges="GorSq_1_1 BynPl_1_3 BynPl_2_1 GorSq_2_2"/>
    </person>
    <person id="pedestrian157" depart="645.00">
        <walk edges="GowSt_1_1 TorPl_2_2"/>
    </person>
    <person id="pedestrian158" depart="649.00">
        <walk edges="HunSt_2_1 TorPl_1_2 CheMe_2_1"/>
    </person>
    <person id="pedestrian159" depart="662.00">
        <walk edges="TorPl_1_2 TorPl_1_3 TorPl_1_4 MalSt_1_1"/>
    </person>
    <person id="pedestrian160" depart="671.00">
        <walk edges="GowSt_2_2 TorPl_1_3 CheMe_1_1"/>
    </person>
    <person id="pedestrian161" depart="678.00">
        <walk edges="GorSq_2_3 BynPl_1_3 BynPl_1_2 BynPl_1_1 TorPl_1_4 TorPl_1_3 TorPl_1_2 HunSt_2_2"/>
    </person>
    <person id="pedestrian162" depart="682.00">
        <walk edges="RidGa_1_1 TorPl_2_2"/>
    </person>
    <person id="pedestrian163" depart="687.00">
        <walk edges="CheMe_2_1 TorPl_1_3 TorPl_1_4 BynPl_1_1 BynPl_2_2 BynPl_2_1 GorSq_2_2"/>
    </person>
    <person id="pedestrian164" depart="688.00">
        <walk edges="BynPl_1_1 TorPl_1_4 TorPl_1_3 CheMe_2_1"/>
    </person>
    <person id="pedestrian165" depart="696.00">
        <walk edges="BynPl_2_1 BynPl_1_3 GorSq_1_2"/>
    </person>
    <person id="pedestrian166" depart="700.00">
        <walk edges="GorSq_1_2 BynPl_1_3 BynPl_1_2 BynPl_1_1 TorPl_1_4 TorPl_1_3 CheMe_2_1"/>
    </person>
    <person id="pedestrian167" depart="705.00">
        <walk edges="GorSq_1_3 GorSq_1_2 GorSq_1_1"/>
    </person>
    <person id="pedestrian168" depart="707.00">
        <walk edges="BynPl_2_1 BynPl_2_2 BynPl_1_1 TorPl_1_4 TorPl_1_3 CheMe_1_1"/>
    </person>
    <person id="pedestrian169" depart="707.00">
        <walk edges="GorSq_1_3 GorSq_1_2 BynPl_1_3 BynPl_1_2 BynPl_1_1 TorPl_1_4 TorPl_1_3 TorPl_1_2 HunSt_1_1"/>
    </person>
    <person id="pedestrian170" depart="712.00">
        <walk edges="TorPl_2_2 TorPl_2_3 HunSt_1_1"/>
    </person>
    <person id="pedestrian171" depart="715.00">
        <walk edges="TorPl_1_4 TorPl_1_3"/>
    </person>
    <person id="pedestrian172" depart="716.00">
        <walk edges="BynPl_2_2 BynPl_1_3 GorSq_1_2"/>
    </person>
    <person id="pedestrian173" depart="718.00">
        <walk edges="CheMe_1_1 TorPl_1_3 GowSt_2_1"/>
    </person>
    <person id="pedestrian174" depart="730.00">
        <walk edges="GowSt_2_2 TorPl_2_2 RidGa_1_1"/>
    </person>
    <person id="pedestrian175" depart="736.00">
        <walk edges="TorPl_1_3 TorPl_1_2 HunSt_2_1"/>
    </person>
    <person id="pedestrian176" depart="740.00">
        <walk edges="GorSq_2_3 BynPl_1_3 BynPl_1_2 BynPl_1_1 TorPl_1_4 GowSt_2_1"/>
    </person>
    <person id="pedestrian177" depart="743.00">
        <walk edges="HunSt_2_2 HunSt_2_1"/>
    </person>
    <person id="pedestrian178" depart="743.00">
        <walk edges="BynPl_2_2 BynPl_1_1 TorPl_1_4"/>
    </person>
    <person id="pedestrian179" depart="759.00">
        <walk edges="GowSt_2_1 TorPl_2_1 BynPl_2_3 BynPl_2_2"/>
    </person>
    <person id="pedestrian180" depart="762.00">
        <walk edges="CheMe_2_1 TorPl_1_3 TorPl_1_4 BynPl_1_1 BynPl_1_2 BynPl_1_3 GorSq_1_1"/>
    </person>
    <person id="pedestrian181" depart="763.00">
        <walk edges="BynPl_2_1 BynPl_2_2 BynPl_1_1 TorPl_1_4 GowSt_1_1"/>
    </person>
    <person id="pedestrian182" depart="767.00">
        <walk edges="TorPl_2_1 TorPl_2_2"/>
    </person>
    <person id="pedestrian183" depart="772.00">
        <walk edges="BynPl_1_2 BynPl_1_1 TorPl_1_4 TorPl_1_3 TorPl_1_2 HunSt_1_1"/>
    </person>
    <person id="pedestrian184" depart="774.00">
        <walk edges="GorSq_2_3 BynPl_1_3 BynPl_1_2 BynPl_1_1 TorPl_1_4 GowSt_2_2"/>
    </person>
    <person id="pedestrian185" depart="775.00">
        <walk edges="BynPl_1_3 BynPl_1_2 BynPl_1_1 MalPl_1_1"/>
    </person>
    <person id="pedestrian186" depart="775.00">
        <walk edges="CheMe_2_1 TorPl_1_3 TorPl_1_4 BynPl_1_1 BynPl_1_2 BynPl_1_3 GorSq_1_2"/>
    </person>
    <person id="pedestrian187" depart="775.00">
        <walk edges="TorPl_1_3 TorPl_1_4 BynPl_1_1 BynPl_2_2"/>
    </person>
    <person id="pedestrian188" depart="778.00">
        <walk edges="TorPl_2_3 HunSt_1_2"/>
    </person>
    <person id="pedestrian189" depart="781.00">
        <walk edges="TorPl_2_4 TorPl_2_3 RidGa_1_1"/>
    </person>
    <person id="pedestrian190" depart="784.00">
        <walk edges="MalPl_1_1 BynPl_1_1 BynPl_1_2 BynPl_1_3"/>
    </person>
    <person id="pedestrian191" depart="784.00">
        <walk edges="BynPl_2_1 BynPl_2_2 BynPl_1_1 MalPl_1_1"/>
    </person>
    <person id="pedestrian192" depart="787.00">
        <walk edges="GorSq_2_2 BynPl_2_1 BynPl_2_2 BynPl_1_1 TorPl_1_4 TorPl_1_3 TorPl_1_2"/>
    </person>
    <person id="pedestrian193" depart="788.00">
        <walk edges="CheMe_2_1 TorPl_1_3 GowSt_2_1"/>
    </person>
    <person id="pedestrian194" depart="789.00">
        <walk edges="BynPl_2_2 BynPl_1_3 GorSq_1_1"/>
    </person>
    <person id="pedestrian195" depart="794.00">
        <walk edges="CheMe_2_1 TorPl_1_2"/>
    </person>
    <person id="pedestrian196" depart="800.00">
        <walk edges="HunSt_2_1 TorPl_2_3 TorPl_2_2 TorPl_2_1 MalSt_1_1"/>
    </person>
    <person id="pedestrian197" depart="802.00">
        <walk edges="HunSt_1_2 TorPl_2_3 TorPl_2_2 TorPl_2_1 MalSt_1_1"/>
    </person>
    <person id="pedestrian198" depart="804.00">
        <walk edges="HunSt_2_1 TorPl_1_2 TorPl_1_3 TorPl_1_4 BynPl_1_1 BynPl_1_2 BynPl_1_3 GorSq_1_2"/>
    </person>
    <person id="pedestrian199" depart="804.00">
        <walk edges="TorPl_2_2 RidGa_1_1"/>
    </person>
    <person id="pedestrian200" depart="806.00">
        <walk edges="GorSq_2_2 GorSq_1_2"/>
    </person>
    <person id="pedestrian201" depart="807.00">
        <walk edges="MalPl_2_1 TorPl_1_4 TorPl_1_3 TorPl_1_2 TorPl_2_4"/>
    </person>
    <person id="pedestrian202" depart="810.00">
        <walk edges="TorPl_1_2 TorPl_1_3 TorPl_2_1 MalSt_2_1"/>
    </person>
    <person id="pedestrian203" depart="811.00">
        <walk edges="GorSq_1_2 GorSq_2_2"/>
    </person>
    <person id="pedestrian204" depart="811.00">
        <walk edges="MalSt_2_1 BynPl_2_3 BynPl_2_2"/>
    </person>
    <person id="pedestrian205" depart="819.00">
        <walk edges="GowSt_1_1 TorPl_1_3 TorPl_1_2 TorPl_1_1"/>
    </person>
    <person id="pedestrian206" depart="820.00">
        <walk edges="MalPl_1_1 TorPl_1_4 TorPl_2_2 TorPl_2_3 HunSt_1_2"/>
    </person>
    <person id="pedestrian207" depart="821.00">
        <walk edges="MalSt_1_1 BynPl_2_3 BynPl_2_2 BynPl_2_1"/>
    </person>
    <person id="pedestrian208" depart="836.00">
        <walk edges="GorSq_2_1 GorSq_2_2 BynPl_2_1 BynPl_2_2 BynPl_2_3 MalSt_1_1"/>
    </person>
    <person id="pedestrian209" depart="836.00">
        <walk edges="GorSq_2_2 BynPl_2_1 BynPl_2_2 BynPl_2_3 TorPl_2_1 TorPl_2_2 TorPl_2_3 HunSt_1_2"/>
    </person>
    <person id="pedestrian210" depart="841.00">
        <walk edges="GorSq_2_3 BynPl_1_3 BynPl_2_2 BynPl_2_3 TorPl_2_1"/>
    </person>
    <person id="pedestrian211" depart="845.00">
        <walk edges="MalPl_1_1 TorPl_1_4 TorPl_1_3 TorPl_1_2 HunSt_1_1"/>
    </person>
    <person id="pedestrian212" depart="847.00">
        <walk edges="TorPl_2_2 TorPl_1_4 BynPl_1_1 BynPl_1_2 BynPl_1_3 GorSq_2_3"/>
    </person>
    <person id="pedestrian213" depart="849.00">
        <walk edges="GorSq_1_3 GorSq_1_2 BynPl_1_3 BynPl_1_2 BynPl_1_1 TorPl_1_4 TorPl_1_3 TorPl_1_2 HunSt_1_1"/>
    </person>
    <person id="pedestrian214" depart="850.00">
        <walk edges="GorSq_1_1"/>
    </person>
    <person id="pedestrian215" depart="852.00">
        <walk edges="GowSt_2_2 TorPl_1_3"/>
    </person>
    <person id="pedestrian216" depart="854.00">
        <walk edges="TorPl_1_4 TorPl_2_2 RidGa_1_1"/>
    </person>
    <person id="pedestrian217" depart="857.00">
        <walk edges="RidGa_1_1 TorPl_2_3 TorPl_1_2 CheMe_1_1"/>
    </person>
    <person id="pedestrian218" depart="864.00">
        <walk edges="CheMe_1_1 TorPl_1_2 TorPl_2_4"/>
    </person>
    <person id="pedestrian219" depart="875.00">
        <walk edges="HunSt_2_2 TorPl_1_2 TorPl_1_3 TorPl_1_4 MalSt_1_1"/>
    </person>
    <person id="pedestrian220" depart="888.00">
        <walk edges="GorSq_1_1 BynPl_1_3 BynPl_1_2 BynPl_1_1 TorPl_1_4 TorPl_2_2 TorPl_2_3 HunSt_1_2"/>
    </person>
    <person id="pedestrian221" depart="888.00">