<?xml version="1.0" encoding="UTF-8"?>

<!-- generated on 2025-12-29 11:55:38.573047 by Eclipse SUMO randomTrips.py UNKNOWN
<configuration>
    <net-file value="../networks/demo/main.net.xml"/>
    <output-trip-file value="../routes/demo/eval/50/pedestrian.trips.xml"/>
    <route-file value="../routes/demo/eval/50/pedestrian.rou.xml"/>
    <pedestrians value="True"/>
    <prefix value="pedestrian"/>
    <seed value="50"/>
    <insertion-density value="400.0"/>
    <binomial value="100"/>
</configuration>
-->

<!-- generated on 2025-12-29T11:55:38.546045+00:00 by Eclipse SUMO duarouter 1.25.0
<duarouterConfiguration xmlns:xsi="http://www.w3.org/2001/XMLSchema-instance" xsi:noNamespaceSchemaLocation="http://sumo.dlr.de/xsd/duarouterConfiguration.xsd">

    <input>
        <net-file value="../networks/demo/main.net.xml"/>
        <route-files value="../routes/demo/eval/50/pedestrian.trips.xml"/>
    </input>

    <output>
        <output-file value="../routes/demo/eval/50/pedestrian.rou.xml"/>
        <alternatives-output value="NUL"/>
    </output>

    <time>
        <begin value="0"/>
        <end value="3600.0"/>
    </time>

    <report>
        <no-warnings value="true"/>
        <ignore-errors value="true"/>
        <no-step-log value="true"/>
    </report>

</duarouterConfiguration>
-->

<routes xmlns:xsi="http://www.w3.org/2001/XMLSchema-instance" xsi:noNamespaceSchemaLocation="http://sumo.dlr.de/xsd/routes_file.xsd">
    <person id="pedestrian0" depart="1.00">
        <walk edges="GorSq_1_3 GorSq_1_2 BynPl_1_3 BynPl_1_2 BynPl_1_1 TorPl_1_4 TorPl_2_2"/>
    </person>
    <person id="pedestrian1" depart="2.00">
        <walk edges="MalSt_1_1 BynPl_2_3 BynPl_2_2 BynPl_1_3 GorSq_2_3"/>
    </person>
    <person id="pedestrian2" depart="5.00">
        <walk edges="BynPl_1_3 BynPl_1_2 BynPl_1_1 TorPl_1_4 TorPl_1_3 TorPl_1_2 TorPl_1_1"/>
    </person>
    <person id="pedestrian3" depart="7.00">
        <walk edges="HunSt_1_1 TorPl_1_2 TorPl_1_3 TorPl_1_4 MalSt_1_1"/>
    </person>
    <person id="pedestrian4" depart="10.00">
        <walk edges="GowSt_1_2 TorPl_1_4"/>
    </person>
    <person id="pedestrian5" depart="10.00">
        <walk edges="MalSt_2_1 TorPl_2_1 GowSt_1_2"/>
    </person>
    <person id="pedestrian6" depart="11.00">
        <walk edges="GowSt_1_1 TorPl_1_4 BynPl_2_3"/>
    </person>
    <person id="pedestrian7" depart="13.00">
        <walk edges="TorPl_1_4"/>
    </person>
    <person id="pedestrian8" depart="14.00">
        <walk edges="HunSt_2_2 TorPl_1_2"/>
    </person>
    <person id="pedestrian9" depart="16.00">
        <walk edges="RidGa_1_1 TorPl_2_2 TorPl_1_4 BynPl_1_1 BynPl_1_2 BynPl_1_3"/>
    </person>
    <person id="pedestrian10" depart="16.00">
        <walk edges="GorSq_2_1 GorSq_2_2 BynPl_2_1 BynPl_2_2 BynPl_1_1 MalPl_1_1"/>
    </person>
    <person id="pedestrian11" depart="16.00">
        <walk edges="GowSt_1_1 TorPl_1_3 TorPl_1_2 TorPl_2_4"/>
    </person>
    <person id="pedestrian12" depart="21.00">
        <walk edges="GowSt_2_1 TorPl_1_3 TorPl_1_2"/>
    </person>
    <person id="pedestrian13" depart="23.00">
        <walk edges="GorSq_2_3 BynPl_1_3 BynPl_2_1 GorSq_2_2"/>
    </person>
    <person id="pedestrian14" depart="30.00">
        <walk edges="TorPl_2_4 TorPl_1_1"/>
    </person>
    <person id="pedestrian15" depart="30.00">
        <walk edges="CheMe_2_1 TorPl_1_3 TorPl_1_4 BynPl_2_3"/>
    </person>
    <person id="pedestrian16" depart="31.00">
        <walk edges="TorPl_2_4 HunSt_1_1"/>
    </person>
    <person id="pedestrian17" depart="31.00">
        <walk edges="TorPl_1_3 TorPl_1_2"/>
    </person>
    <person id="pedestrian18" depart="37.00">
        <walk edges="BynPl_2_3 TorPl_2_1 TorPl_2_2"/>
    </person>
    <person id="pedestrian19" depart="37.00">
        <walk edges="TorPl_2_3 TorPl_1_2"/>
    </person>
    <person id="pedestrian20" depart="37.00">
        <walk edges="MalSt_1_1 TorPl_2_1 TorPl_2_2 RidGa_1_1"/>
    </person>
    <person id="pedestrian21" depart="39.00">
        <walk edges="BynPl_2_1 BynPl_2_2 BynPl_1_1"/>
    </person>
    <person id="pedestrian22" depart="41.00">
        <walk edges="BynPl_2_1 BynPl_2_2 BynPl_2_3 TorPl_2_1 TorPl_2_2 TorPl_2_3 TorPl_2_4"/>
    </person>
    <person id="pedestrian23" depart="41.00">
        <walk edges="GowSt_2_1 TorPl_1_4 BynPl_1_1 BynPl_1_2 BynPl_1_3 GorSq_1_1"/>
    </person>
    <person id="pedestrian24" depart="42.00">
        <walk edges="MalSt_2_1 MalSt_1_1"/>
    </person>
    <person id="pedestrian25" depart="48.00">
        <walk edges="CheMe_1_1 TorPl_1_3"/>
    </person>
    <person id="pedestrian26" depart="54.00">
        <walk edges="GorSq_1_3 GorSq_1_2 BynPl_1_3 BynPl_1_2 BynPl_1_1 TorPl_1_4 TorPl_1_3"/>
    </person>
    <person id="pedestrian27" depart="54.00">
        <walk edges="GorSq_2_1 GorSq_2_2 BynPl_2_1"/>
    </person>
    <person id="pedestrian28" depart="58.00">
        <walk edges="TorPl_2_3 TorPl_2_2 TorPl_2_1 MalSt_1_1"/>
    </person>
    <person id="pedestrian29" depart="60.00">
        <walk edges="TorPl_2_1 TorPl_1_3 TorPl_1_2"/>
    </person>
    <person id="pedestrian30" depart="60.00">
        <walk edges="BynPl_1_2 BynPl_1_3 GorSq_1_1"/>
    </person>
    <person id="pedestrian31" depart="61.00">
        <walk edges="HunSt_1_2 TorPl_1_2 TorPl_1_3 TorPl_1_4 BynPl_1_1 BynPl_1_2"/>
    </person>
    <person id="pedestrian32" depart="63.00">
        <walk edges="GorSq_2_2 BynPl_2_1 BynPl_2_2 BynPl_1_1 TorPl_1_4 TorPl_1_3 CheMe_1_1"/>
    </person>
    <person id="pedestrian33" depart="64.00">
        <walk edges="BynPl_1_1 BynPl_1_2"/>
    </person>
    <person id="pedestrian34" depart="64.00">
        <walk edges="GowSt_2_2 TorPl_2_1 MalSt_2_1"/>
    </person>
    <person id="pedestrian35" depart="65.00">
        <walk edges="GorSq_1_1 BynPl_1_3 BynPl_2_2 BynPl_2_3 TorPl_2_1"/>
    </person>
    <person id="pedestrian36" depart="68.00">
        <walk edges="MalPl_2_1 TorPl_1_4 TorPl_2_2 RidGa_1_1"/>
    </person>
    <person id="pedestrian37" depart="68.00">
        <walk edges="BynPl_2_2 BynPl_1_3 GorSq_1_2 GorSq_1_3"/>
    </person>
    <person id="pedestrian38" depart="68.00">
        <walk edges="GorSq_2_1 GorSq_2_2 BynPl_2_1 BynPl_2_2 BynPl_2_3 TorPl_2_1 TorPl_2_2 TorPl_2_3 TorPl_2_4"/>
    </person>
    <person id="pedestrian39" depart="72.00">
        <walk edges="TorPl_2_3 TorPl_2_2 GowSt_1_2"/>
    </person>
    <person id="pedestrian40" depart="73.00">
        <walk edges="RidGa_1_1 TorPl_2_3 TorPl_2_4"/>
    </person>
    <person id="pedestrian41" depart="73.00">
        <walk edges="TorPl_1_4 BynPl_1_1 BynPl_1_2"/>
    </person>
    <person id="pedestrian42" depart="74.00">
        <walk edges="GorSq_2_3 BynPl_1_3 BynPl_1_2 BynPl_1_1 TorPl_1_4 TorPl_1_3 TorPl_1_2"/>
    </person>
    <person id="pedestrian43" depart="75.00">
        <walk edges="BynPl_2_2 BynPl_2_3 TorPl_2_1 GowSt_1_2"/>
    </person>
    <person id="pedestrian44" depart="77.00">
        <walk edges="CheMe_1_1 TorPl_1_3 TorPl_2_1"/>
    </person>
    <person id="pedestrian45" depart="77.00">
        <walk edges="GorSq_2_1 GorSq_2_2 BynPl_2_1 BynPl_2_2 BynPl_2_3 TorPl_2_1 TorPl_2_2 TorPl_2_3 TorPl_2_4"/>
    </person>
    <person id="pedestrian46" depart="78.00">
        <walk edges="GorSq_2_3 BynPl_1_3"/>
    </person>
    <person id="pedestrian47" depart="82.00">
        <walk edges="MalSt_2_1 TorPl_2_1 TorPl_2_2 RidGa_1_1"/>
    </person>
    <person id="pedestrian48" depart="84.00">
        <walk edges="GowSt_2_2 TorPl_1_4 BynPl_1_1 BynPl_2_2"/>
    </person>
    <person id="pedestrian49" depart="91.00">
        <walk edges="TorPl_2_2 TorPl_2_3 TorPl_1_1"/>
    </person>
    <person id="pedestrian50" depart="95.00">
        <walk edges="TorPl_1_1 TorPl_1_2 TorPl_1_3 TorPl_1_4 BynPl_1_1 BynPl_2_2 BynPl_2_1 GorSq_2_2"/>
    </person>
    <person id="pedestrian51" depart="96.00">
        <walk edges="GorSq_2_2 BynPl_2_1 BynPl_2_2 BynPl_1_1 MalPl_1_1"/>
    </person>
    <person id="pedestrian52" depart="99.00">
        <walk edges="CheMe_1_1 TorPl_1_3 TorPl_2_1 MalSt_2_1"/>
    </person>
    <person id="pedestrian53" depart="100.00">
        <walk edges="HunSt_2_2 TorPl_2_3 RidGa_2_1"/>
    </person>
    <person id="pedestrian54" depart="102.00">
        <walk edges="GorSq_2_1"/>
    </person>
    <person id="pedestrian55" depart="103.00">
        <walk edges="TorPl_2_4 TorPl_2_3 RidGa_1_1"/>
    </person>
    <person id="pedestrian56" depart="104.00">
        <walk edges="GowSt_1_2 TorPl_1_3 CheMe_2_1"/>
    </person>
    <person id="pedestrian57" depart="106.00">
        <walk edges="CheMe_2_1 TorPl_1_2 TorPl_2_3 RidGa_2_1"/>
    </person>
    <person id="pedestrian58" depart="109.00">
        <walk edges="GorSq_1_2 BynPl_1_3 BynPl_1_2 BynPl_1_1 TorPl_1_4 TorPl_1_3"/>
    </person>
    <person id="pedestrian59" depart="111.00">
        <walk edges="GowSt_1_1 TorPl_1_4 MalPl_2_1"/>
    </person>
    <person id="pedestrian60" depart="113.00">
        <walk edges="BynPl_2_3"/>
    </person>
    <person id="pedestrian61" depart="113.00">
        <walk edges="TorPl_2_3 TorPl_2_2 TorPl_2_1"/>
    </person>
    <person id="pedestrian62" depart="115.00">
        <walk edges="TorPl_1_1 TorPl_1_2 TorPl_1_3 TorPl_1_4 BynPl_1_1 BynPl_1_2 BynPl_1_3 GorSq_1_2"/>
    </person>
    <person id="pedestrian63" depart="117.00">
        <walk edges="GowSt_2_2 TorPl_2_1 MalSt_2_1"/>
    </person>
    <person id="pedestrian64" depart="118.00">
        <walk edges="GowSt_2_1 TorPl_1_4 BynPl_1_1 BynPl_1_2 BynPl_1_3"/>
    </person>
    <person id="pedestrian65" depart="122.00">
        <walk edges="HunSt_1_1 TorPl_1_1"/>
    </person>
    <person id="pedestrian66" depart="123.00">
        <walk edges="RidGa_2_1 TorPl_2_3 TorPl_1_1"/>
    </person>
    <person id="pedestrian67" depart="126.00">
        <walk edges="CheMe_2_1 TorPl_1_3 TorPl_1_4 BynPl_1_1 BynPl_2_2 BynPl_2_1 GorSq_2_2"/>
    </person>
    <person id="pedestrian68" depart="130.00">
        <walk edges="GowSt_1_1 TorPl_1_4 BynPl_1_1 BynPl_2_2"/>
    </person>
    <person id="pedestrian69" depart="131.00">
        <walk edges="TorPl_1_3 TorPl_1_4 BynPl_1_1 BynPl_1_2 BynPl_1_3 GorSq_1_2"/>
    </person>
    <person id="pedestrian70" depart="133.00">
        <walk edges="GorSq_1_3 GorSq_1_2 BynPl_1_3 BynPl_2_2 BynPl_2_3 MalSt_2_1"/>
    </person>
    <person id="pedestrian71" depart="136.00">
        <walk edges="TorPl_1_4"/>
    </person>
    <person id="pedestrian72" depart="136.00">
        <walk edges="GorSq_2_1 GorSq_2_2 BynPl_2_1 BynPl_2_2 BynPl_2_3 TorPl_2_1 TorPl_2_2 RidGa_2_1"/>
    </person>
    <person id="pedestrian73" depart="136.00">
        <walk edges="MalSt_2_1 TorPl_2_1 TorPl_2_2"/>
    </person>
    <person id="pedestrian74" depart="137.00">
        <walk edges="BynPl_1_1 MalSt_2_1"/>
    </person>
    <person id="pedestrian75" depart="138.00">
        <walk edges="GowSt_2_1 TorPl_1_3"/>
    </person>
    <person id="pedestrian76" depart="139.00">
        <walk edges="GowSt_2_1 TorPl_2_1 MalSt_1_1"/>
    </person>
    <person id="pedestrian77" depart="139.00">
        <walk edges="TorPl_1_2 TorPl_1_3 TorPl_1_4 MalPl_1_1"/>
    </person>
    <person id="pedestrian78" depart="141.00">
        <walk edges="BynPl_1_1 TorPl_1_4 TorPl_2_2 RidGa_2_1"/>
    </person>
    <person id="pedestrian79" depart="142.00">
        <walk edges="GorSq_2_3 BynPl_1_3 BynPl_2_2 BynPl_2_3 MalSt_1_1"/>
    </person>
    <person id="pedestrian80" depart="144.00">
        <walk edges="RidGa_1_1 TorPl_2_2 TorPl_2_1 BynPl_2_3"/>
    </person>
    <person id="pedestrian81" depart="146.00">
        <walk edges="GowSt_1_2 TorPl_1_3 CheMe_1_1"/>
    </person>
    <person id="pedestrian82" depart="149.00">
        <walk edges="BynPl_2_1 BynPl_2_2 BynPl_2_3 TorPl_2_1 GowSt_1_2"/>
    </person>
    <person id="pedestrian83" depart="153.00">
        <walk edges="TorPl_1_1 TorPl_1_2 TorPl_1_3 TorPl_1_4 BynPl_1_1 BynPl_1_2 BynPl_1_3 GorSq_1_1"/>
    </person>
    <person id="pedestrian84" depart="155.00">
        <walk edges="GowSt_2_2 TorPl_2_1"/>
    </person>
    <person id="pedestrian85" depart="155.00">
        <walk edges="HunSt_2_1 TorPl_2_3 TorPl_2_2 TorPl_2_1 BynPl_2_3"/>
    </person>
    <person id="pedestrian86" depart="155.00">
        <walk edges="GowSt_2_2 TorPl_1_4"/>
    </person>
    <person id="pedestrian87" depart="160.00">
        <walk edges="RidGa_2_1 TorPl_2_2 TorPl_2_1 MalSt_2_1"/>
    </person>
    <person id="pedestrian88" depart="160.00">
        <walk edges="TorPl_1_3 GowSt_2_1"/>
    </person>
    <person id="pedestrian89" depart="161.00">
        <walk edges="BynPl_2_3 TorPl_1_4"/>
    </person>
    <person id="pedestrian90" depart="163.00">
        <walk edges="HunSt_2_2 TorPl_1_2 TorPl_1_3 TorPl_1_4 BynPl_1_1 BynPl_1_2 BynPl_1_3"/>
    </person>
    <person id="pedestrian91" depart="167.00">
        <walk edges="HunSt_1_2 TorPl_1_2 TorPl_1_3 TorPl_1_4 BynPl_1_1 BynPl_1_2 BynPl_1_3 GorSq_1_1"/>
    </person>
    <person id="pedestrian92" depart="171.00">
        <walk edges="HunSt_1_1 TorPl_2_3 TorPl_2_2"/>
    </person>
    <person id="pedestrian93" depart="172.00">
        <walk edges="BynPl_2_3 MalSt_1_1"/>
    </person>
    <person id="pedestrian94" depart="175.00">
        <walk edges="GorSq_2_3 BynPl_1_3 BynPl_1_2 BynPl_1_1 TorPl_1_4 TorPl_1_3 TorPl_1_2 TorPl_2_4"/>
    </person>
    <person id="pedestrian95" depart="179.00">
        <walk edges="TorPl_1_1 HunSt_2_1"/>
    </person>
    <person id="pedestrian96" depart="189.00">
        <walk edges="GorSq_1_1 BynPl_1_3 BynPl_1_2 BynPl_1_1 TorPl_1_4 GowSt_1_2"/>
    </person>
    <person id="pedestrian97" depart="191.00">
        <walk edges="GorSq_2_1 GorSq_2_2 BynPl_2_1 BynPl_2_2 BynPl_1_1 MalPl_2_1"/>
    </person>
    <person id="pedestrian98" depart="192.00">
        <walk edges="MalSt_2_1 TorPl_2_1 TorPl_2_2"/>
    </person>
    <person id="pedestrian99" depart="197.00">
        <walk edges="GorSq_2_3 BynPl_1_3 BynPl_2_1"/>
    </person>
    <person id="pedestrian100" depart="199.00">
        <walk edges="GorSq_1_3 GorSq_1_2 BynPl_1_3 BynPl_1_2 BynPl_1_1 TorPl_1_4 GowSt_2_2"/>
    </person>
    <person id="pedestrian101" depart="203.00">
        <walk edges="MalSt_2_1 TorPl_2_1 GowSt_1_1"/>
    </person>
    <person id="pedestrian102" depart="203.00">
        <walk edges="BynPl_1_2 BynPl_1_3 GorSq_1_1"/>
    </person>
    <person id="pedestrian103" depart="209.00">
        <walk edges="HunSt_1_2 TorPl_2_3 TorPl_2_2 TorPl_2_1 BynPl_2_3 BynPl_2_2 BynPl_2_1"/>
    </person>
    <person id="pedestrian104" depart="212.00">
        <walk edges="HunSt_1_2 TorPl_1_2 TorPl_1_3 TorPl_1_4 BynPl_1_1 BynPl_1_2 BynPl_1_3 GorSq_1_2"/>
    </person>
    <person id="pedestrian105" depart="212.00">
        <walk edges="HunSt_2_2 TorPl_2_3 TorPl_2_2 GowSt_2_1"/>
    </person>
    <person id="pedestrian106" depart="214.00">
        <walk edges="MalSt_1_1 TorPl_1_4 TorPl_1_3 TorPl_1_2 HunSt_1_1"/>
    </person>
    <person id="pedestrian107" depart="215.00">
        <walk edges="TorPl_1_1 TorPl_2_3"/>
    </person>
    <person id="pedestrian108" depart="218.00">
        <walk edges="GorSq_1_2 BynPl_1_3 BynPl_1_2 BynPl_1_1 TorPl_1_4 TorPl_1_3"/>
    </person>
    <person id="pedestrian109" depart="221.00">
        <walk edges="GowSt_1_1 TorPl_1_3 CheMe_1_1"/>
    </person>
    <person id="pedestrian110" depart="222.00">
        <walk edges="GowSt_2_1 TorPl_2_2 TorPl_2_3 TorPl_1_1"/>
    </person>
    <person id="pedestrian111" depart="222.00">
        <walk edges="GowSt_2_2 TorPl_1_4 BynPl_1_1 BynPl_2_2 BynPl_2_1"/>
    </person>
    <person id="pedestrian112" depart="230.00">
        <walk edges="BynPl_2_3 TorPl_1_4 TorPl_1_3 TorPl_1_2 HunSt_2_2"/>
    </person>
    <person id="pedestrian113" depart="232.00">
        <walk edges="MalSt_1_1 TorPl_1_4 TorPl_1_3 CheMe_2_1"/>
    </person>
    <person id="pedestrian114" depart="232.00">
        <walk edges="HunSt_1_2 TorPl_2_3 TorPl_2_2"/>
    </person>
    <person id="pedestrian115" depart="232.00">
        <walk edges="GowSt_1_2 TorPl_2_2 RidGa_2_1"/>
    </person>
    <person id="pedestrian116" depart="234.00">
        <walk edges="GowSt_1_2 TorPl_1_3 TorPl_1_2"/>
    </person>
    <person id="pedestrian117" depart="237.00">
        <walk edges="TorPl_1_4 GowSt_1_1"/>
    </person>
    <person id="pedestrian118" depart="237.00">
        <walk edges="BynPl_1_1 BynPl_2_2 BynPl_2_1 GorSq_2_2"/>
    </person>
    <person id="pedestrian119" depart="237.00">
        <walk edges="TorPl_1_4 BynPl_1_1 BynPl_1_2 BynPl_1_3 GorSq_1_1"/>
    </person>
    <person id="pedestrian120" depart="240.00">
        <walk edges="BynPl_1_1 TorPl_1_4 TorPl_1_3 TorPl_1_2 TorPl_2_4"/>
    </person>
    <person id="pedestrian121" depart="241.00">
        <walk edges="BynPl_2_3 BynPl_2_2 BynPl_1_3 GorSq_1_2 GorSq_1_3"/>
    </person>
    <person id="pedestrian122" depart="242.00">
        <walk edges="HunSt_2_1 TorPl_2_3 TorPl_2_2 TorPl_2_1 BynPl_2_3 BynPl_2_2 BynPl_2_1"/>
    </person>
    <person id="pedestrian123" depart="246.00">
        <walk edges="HunSt_2_2 TorPl_1_2 TorPl_1_3 TorPl_1_4 BynPl_1_1"/>
    </person>
    <person id="pedestrian124" depart="251.00">
        <walk edges="TorPl_2_1 BynPl_1_1"/>
    </person>
    <person id="pedestrian125" depart="251.00">
        <walk edges="BynPl_2_3 BynPl_1_1"/>
    </person>
    <person id="pedestrian126" depart="255.00">
        <walk edges="BynPl_2_1 BynPl_2_2 BynPl_1_1 TorPl_1_4 GowSt_1_1"/>
    </person>
    <person id="pedestrian127" depart="257.00">
        <walk edges="MalPl_2_1 TorPl_1_4 GowSt_1_1"/>
    </person>
    <person id="pedestrian128" depart="259.00">
        <walk edges="HunSt_1_1 TorPl_1_2 TorPl_1_3 TorPl_1_4"/>
    </person>
    <person id="pedestrian129" depart="261.00">
        <walk edges="MalPl_1_1 BynPl_1_1 BynPl_2_2"/>
    </person>
    <person id="pedestrian130" depart="261.00">
        <walk edges="TorPl_1_4 TorPl_2_2 RidGa_1_1"/>
    </person>
    <person id="pedestrian131" depart="262.00">
        <walk edges="MalPl_1_1 TorPl_1_4"/>
    </person>
    <person id="pedestrian132" depart="266.00">
        <walk edges="HunSt_1_2 HunSt_2_2"/>
    </person>
    <person id="pedestrian133" depart="267.00">
        <walk edges="BynPl_1_2 BynPl_2_3 MalSt_1_1"/>
    </person>
    <person id="pedestrian134" depart="267.00">
        <walk edges="MalSt_1_1 BynPl_2_3 BynPl_2_2"/>
    </person>
    <person id="pedestrian135" depart="269.00">
        <walk edges="GorSq_1_2 BynPl_1_3 BynPl_1_2 BynPl_1_1 TorPl_1_4 TorPl_1_3"/>
    </person>
    <person id="pedestrian136" depart="272.00">
        <walk edges="TorPl_2_1 TorPl_2_2 TorPl_2_3 HunSt_1_1"/>
    </person>
    <person id="pedestrian137" depart="272.00">
        <walk edges="RidGa_1_1 TorPl_2_2 TorPl_1_4 BynPl_1_1 BynPl_1_2 BynPl_1_3 GorSq_2_3"/>
    </person>
    <person id="pedestrian138" depart="273.00">
        <walk edges="GowSt_2_2 TorPl_1_4 BynPl_1_1 BynPl_2_2 BynPl_2_1 GorSq_2_2 GorSq_2_1"/>
    </person>
    <person id="pedestrian139" depart="273.00">
        <walk edges="GorSq_1_1 BynPl_1_3 BynPl_2_2 BynPl_2_3 MalSt_1_1"/>
    </person>
    <person id="pedestrian140" depart="273.00">
        <walk edges="MalSt_2_1"/>
    </person>
    <person id="pedestrian141" depart="275.00">
        <walk edges="BynPl_2_1 BynPl_2_2 BynPl_2_3 TorPl_2_1 TorPl_2_2 RidGa_1_1"/>
    </person>
    <person id="pedestrian142" depart="275.00">
        <walk edges="MalSt_1_1 TorPl_2_1 TorPl_2_2 TorPl_2_3 HunSt_1_2"/>
    </person>
    <person id="pedestrian143" depart="276.00">
        <walk edges="HunSt_1_1 TorPl_2_3"/>
    </person>
    <person id="pedestrian144" depart="277.00">
        <walk edges="HunSt_1_1 TorPl_2_3 TorPl_2_2 TorPl_2_1 MalSt_2_1"/>
    </person>
    <person id="pedestrian145" depart="278.00">
        <walk edges="TorPl_2_3 TorPl_2_2 TorPl_1_4 BynPl_1_1 BynPl_1_2 BynPl_1_3"/>
    </person>
    <person id="pedestrian146" depart="278.00">
        <walk edges="MalPl_1_1 BynPl_1_1 BynPl_2_2 BynPl_2_1 GorSq_2_2"/>
    </person>
    <person id="pedestrian147" depart="282.00">
        <walk edges="CheMe_1_1 TorPl_1_3 TorPl_1_4 BynPl_1_1 BynPl_1_2 BynPl_1_3 GorSq_1_2 GorSq_1_3"/>
    </person>
    <person id="pedestrian148" depart="288.00">
        <walk edges="CheMe_2_1 TorPl_1_3 TorPl_1_4 BynPl_1_1 BynPl_2_2 BynPl_2_1"/>
    </person>
    <person id="pedestrian149" depart="291.00">
        <walk edges="TorPl_1_3 TorPl_1_4 BynPl_1_1 BynPl_1_2 BynPl_1_3 GorSq_1_1"/>
    </person>
    <person id="pedestrian150" depart="291.00">
        <walk edges="TorPl_1_2"/>
    </person>
    <person id="pedestrian151" depart="292.00">
        <walk edges="BynPl_2_2 BynPl_2_3 MalSt_1_1"/>
    </person>
    <person id="pedestrian152" depart="293.00">
        <walk edges="GowSt_1_2"/>
    </person>
    <person id="pedestrian153" depart="295.00">
        <walk edges="TorPl_1_4 MalPl_2_1"/>
    </person>
    <person id="pedestrian154" depart="296.00">
        <walk edges="MalSt_2_1 TorPl_2_1"/>
    </person>
    <person id="pedestrian155" depart="298.00">
        <walk edges="TorPl_2_4 TorPl_1_2 TorPl_1_3 TorPl_1_4 BynPl_1_1 BynPl_1_2 BynPl_1_3 GorSq_1_1"/>
    </person>
    <person id="pedestrian156" depart="298.00">
        <walk edges="GorSq_1_1 GorSq_2_3"/>
    </person>
    <person id="pedestrian157" depart="302.00">
        <walk edges="BynPl_2_1 BynPl_2_2 BynPl_2_3 TorPl_2_1 TorPl_2_2 TorPl_2_3 HunSt_2_1"/>
    </person>
    <person id="pedestrian158" depart="304.00">
        <walk edges="RidGa_2_1 TorPl_2_2"/>
    </person>
    <person id="pedestrian159" depart="310.00">
        <walk edges="GowSt_2_1 GowSt_2_2"/>
    </person>
    <person id="pedestrian160" depart="311.00">
        <walk edges="RidGa_1_1"/>
    </person>
    <person id="pedestrian161" depart="312.00">
        <walk edges="RidGa_2_1 TorPl_2_2 TorPl_1_4 BynPl_1_1 BynPl_1_2 BynPl_1_3 GorSq_1_2 GorSq_1_3"/>
    </person>
    <person id="pedestrian162" depart="316.00">
        <walk edges="HunSt_1_1 TorPl_1_2 TorPl_1_3 TorPl_1_4 BynPl_1_1 BynPl_1_2 BynPl_1_3 GorSq_1_2 GorSq_1_3"/>
    </person>
    <person id="pedestrian163" depart="318.00">
        <walk edges="BynPl_1_2"/>
    </person>
    <person id="pedestrian164" depart="319.00">
        <walk edges="GorSq_1_1 GorSq_1_2 GorSq_1_3"/>
    </person>
    <person id="pedestrian165" depart="319.00">
        <walk edges="TorPl_1_1 TorPl_1_2 TorPl_1_3 TorPl_1_4 MalPl_1_1"/>
    </person>
    <person id="pedestrian166" depart="322.00">
        <walk edges="TorPl_1_4 TorPl_2_2"/>
    </person>
    <person id="pedestrian167" depart="323.00">
        <walk edges="TorPl_2_2 GowSt_2_1"/>
    </person>
    <person id="pedestrian168" depart="323.00">
        <walk edges="BynPl_2_2 BynPl_2_3 TorPl_2_1 TorPl_2_2 TorPl_2_3 HunSt_2_1"/>
    </person>
    <person id="pedestrian169" depart="324.00">
        <walk edges="CheMe_1_1 TorPl_1_2 TorPl_2_4"/>
    </person>
    <person id="pedestrian170" depart="327.00">
        <walk edges="BynPl_2_2 BynPl_2_3 TorPl_2_1 TorPl_2_2 RidGa_2_1"/>
    </person>
    <person id="pedestrian171" depart="328.00">
        <walk edges="GowSt_2_1 TorPl_1_3 CheMe_1_1"/>
    </person>
    <person id="pedestrian172" depart="329.00">
        <walk edges="CheMe_1_1 TorPl_1_3 TorPl_1_4 BynPl_1_1"/>
    </person>
    <person id="pedestrian173" depart="329.00">
        <walk edges="TorPl_1_3 TorPl_1_2 TorPl_1_1"/>
    </person>
    <person id="pedestrian174" depart="331.00">
        <walk edges="BynPl_2_3 BynPl_2_2 BynPl_1_3 GorSq_1_2"/>
    </person>
    <person id="pedestrian175" depart="333.00">
        <walk edges="BynPl_2_2 BynPl_1_1 TorPl_1_4 GowSt_1_1"/>
    </person>
    <person id="pedestrian176" depart="333.00">
        <walk edges="TorPl_2_3 TorPl_2_2 TorPl_1_4 MalPl_2_1"/>
    </person>
    <person id="pedestrian177" depart="337.00">
        <walk edges="TorPl_2_3 HunSt_2_1"/>
    </person>
    <person id="pedestrian178" depart="338.00">
        <walk edges="GorSq_1_3 GorSq_1_2 BynPl_1_3 BynPl_1_2 BynPl_1_1 TorPl_1_4 TorPl_1_3 TorPl_1_2 HunSt_1_2"/>
    </person>
    <person id="pedestrian179" depart="339.00">
        <walk edges="GowSt_1_2 TorPl_2_2 TorPl_2_3"/>
    </person>
    <person id="pedestrian180" depart="339.00">
        <walk edges="GorSq_1_1 BynPl_1_3 BynPl_1_2 BynPl_1_1 TorPl_1_4 TorPl_1_3 TorPl_1_2"/>
    </person>
    <person id="pedestrian181" depart="340.00">
        <walk edges="TorPl_1_2 TorPl_1_3 TorPl_1_4 MalPl_2_1"/>
    </person>
    <person id="pedestrian182" depart="340.00">
        <walk edges="TorPl_1_3 GowSt_2_2"/>
    </person>
    <person id="pedestrian183" depart="345.00">
        <walk edges="GowSt_1_1 GowSt_1_2"/>
    </person>
    <person id="pedestrian184" depart="346.00">
        <walk edges="CheMe_2_1 TorPl_1_3 TorPl_1_4 BynPl_2_3"/>
    </person>
    <person id="pedestrian185" depart="346.00">
        <walk edges="GorSq_2_2 BynPl_2_1 BynPl_2_2 BynPl_2_3 TorPl_2_1"/>
    </person>
    <person id="pedestrian186" depart="349.00">
        <walk edges="TorPl_2_4 TorPl_2_3 TorPl_2_2 TorPl_2_1 BynPl_2_3"/>
    </person>
    <person id="pedestrian187" depart="351.00">
        <walk edges="GowSt_2_2 TorPl_1_4"/>
    </person>
    <person id="pedestrian188" depart="353.00">
        <walk edges="GorSq_1_1 GorSq_2_3"/>
    </person>
    <person id="pedestrian189" depart="354.00">
        <walk edges="HunSt_2_2 TorPl_1_2 TorPl_1_3 TorPl_1_4 BynPl_1_1 BynPl_1_2 BynPl_1_3 GorSq_1_2 GorSq_1_3"/>
    </person>
    <person id="pedestrian190" depart="358.00">
        <walk edges="BynPl_1_1 BynPl_1_2"/>
    </person>
    <person id="pedestrian191" depart="358.00">
        <walk edges="TorPl_1_4 BynPl_1_1 BynPl_1_2 BynPl_1_3 GorSq_1_2 GorSq_1_3"/>
    </person>
    <person id="pedestrian192" depart="359.00">
        <walk edges="HunSt_2_2 TorPl_2_3 RidGa_2_1"/>
    </person>
    <person id="pedestrian193" depart="361.00">
        <walk edges="BynPl_2_1 BynPl_1_3 GorSq_1_1"/>
    </person>
    <person id="pedestrian194" depart="363.00">
        <walk edges="MalPl_1_1 TorPl_1_4 TorPl_2_2 TorPl_2_3"/>
    </person>
    <person id="pedestrian195" depart="364.00">
        <walk edges="GorSq_1_3 GorSq_1_2"/>
    </person>
    <person id="pedestrian196" depart="371.00">
        <walk edges="RidGa_1_1 TorPl_2_2 TorPl_1_4 BynPl_1_1 BynPl_1_2 BynPl_1_3 GorSq_2_3"/>
    </person>
    <person id="pedestrian197" depart="377.00">
        <walk edges="BynPl_1_2 BynPl_1_1 TorPl_1_4 TorPl_2_2"/>
    </person>
    <person id="pedestrian198" depart="379.00">
        <walk edges="BynPl_2_3 TorPl_1_4 TorPl_1_3 TorPl_1_2 HunSt_1_1"/>
    </person>
    <person id="pedestrian199" depart="383.00">
        <walk edges="TorPl_1_2 TorPl_1_3 GowSt_2_2"/>
    </person>
    <person id="pedestrian200" depart="388.00">
        <walk edges="RidGa_2_1 TorPl_2_2 TorPl_1_4"/>
    </person>
    <person id="pedestrian201" depart="390.00">
        <walk edges="TorPl_2_1 TorPl_2_2 TorPl_2_3 TorPl_2_4"/>
    </person>
    <person id="pedestrian202" depart="390.00">
        <walk edges="GowSt_2_2 TorPl_1_4 BynPl_1_1 BynPl_1_2 BynPl_1_3"/>
    </person>
    <person id="pedestrian203" depart="392.00">
        <walk edges="TorPl_2_1 BynPl_2_3 BynPl_2_2 BynPl_2_1 GorSq_2_2 GorSq_2_1"/>
    </person>
    <person id="pedestrian204" depart="393.00">
        <walk edges="BynPl_2_2 BynPl_2_3 MalSt_2_1"/>
    </person>
    <person id="pedestrian205" depart="393.00">
        <walk edges="RidGa_2_1 TorPl_2_2 TorPl_1_4 BynPl_1_1 BynPl_1_2 BynPl_1_3"/>
    </person>
    <person id="pedestrian206" depart="396.00">
        <walk edges="GorSq_2_2 BynPl_2_1 BynPl_2_2 BynPl_1_1 TorPl_1_4"/>
    </person>
    <person id="pedestrian207" depart="397.00">
        <walk edges="MalPl_2_1 TorPl_1_4 TorPl_1_3 TorPl_1_2 HunSt_1_2"/>
    </person>
    <person id="pedestrian208" depart="398.00">
        <walk edges="GorSq_2_3 BynPl_1_3 BynPl_1_2 BynPl_1_1 TorPl_1_4"/>
    </person>
    <person id="pedestrian209" depart="404.00">
        <walk edges="TorPl_2_3 HunSt_1_2"/>
    </person>
    <person id="pedestrian210" depart="404.00">
        <walk edges="GorSq_1_2 BynPl_1_3 BynPl_1_2 BynPl_1_1 TorPl_1_4 GowSt_1_2"/>
    </person>
    <person id="pedestrian211" depart="407.00">
        <walk edges="GorSq_1_3 GorSq_2_1"/>
    </person>
    <person id="pedestrian212" depart="410.00">
        <walk edges="TorPl_1_4 GowSt_2_1"/>
    </person>
    <person id="pedestrian213" depart="411.00">
        <walk edges="TorPl_2_4 HunSt_2_1"/>
    </person>
    <person id="pedestrian214" depart="416.00">
        <walk edges="BynPl_1_3 BynPl_1_2 BynPl_1_1 TorPl_1_4 TorPl_2_2"/>
    </person>
    <person id="pedestrian215" depart="416.00">
        <walk edges="TorPl_1_4 BynPl_1_1 BynPl_2_2 BynPl_2_1"/>
    </person>
    <person id="pedestrian216" depart="417.00">
        <walk edges="GorSq_1_3 GorSq_2_2"/>
    </person>
    <person id="pedestrian217" depart="419.00">
        <walk edges="GorSq_1_2 GorSq_2_1"/>
    </person>
    <person id="pedestrian218" depart="419.00">
        <walk edges="GorSq_2_3 BynPl_1_3 BynPl_2_2 BynPl_2_3"/>
    </person>
    <person id="pedestrian219" depart="424.00">
        <walk edges="BynPl_1_1 TorPl_1_4 TorPl_2_2 TorPl_2_3"/>
    </person>
    <person id="pedestrian220" depart="425.00">
        <walk edges="TorPl_1_3 TorPl_1_4 MalPl_1_1"/>
    </person>
    <person id="pedestrian221" depart="426.00">
        <walk edges="TorPl_1_3 CheMe_1_1"/>
    </person>
    <person id="pedestrian222" depart="426.00">
        <walk edges="MalPl_1_1 TorPl_2_1"/>
    </person>
    <person id="pedestrian223" depart="428.00">
        <walk edges="HunSt_2_2 TorPl_1_2 TorPl_1_3 TorPl_1_4 BynPl_1_1 BynPl_2_2 BynPl_2_1 GorSq_2_2"/>
    </person>
    <person id="pedestrian224" depart="429.00">
        <walk edges="MalSt_1_1 TorPl_1_4 TorPl_1_3 TorPl_1_2 HunSt_2_2"/>
    </person>
    <person id="pedestrian225" depart="432.00">
        <walk edges="MalSt_1_1 TorPl_2_1 TorPl_2_2 TorPl_2_3 HunSt_2_1"/>
    </person>
    <person id="pedestrian226" depart="433.00">