<?xml version="1.0" encoding="UTF-8"?>

<!-- generated on 2026-01-14 16:39:11.147411 by Eclipse SUMO randomTrips.py UNKNOWN
<configuration>
    <net-file value="../networks/demo/main.net.xml"/>
    <output-trip-file value="../routes/demo/train/812/pedestrian.trips.xml"/>
    <route-file value="../routes/demo/train/812/pedestrian.rou.xml"/>
    <pedestrians value="True"/>
    <prefix value="pedestrian"/>
    <seed value="812"/>
    <insertion-density value="200.0"/>
    <binomial value="100"/>
</configuration>
-->

<!-- generated on 2026-01-14T16:39:11.131405+00:00 by Eclipse SUMO duarouter 1.25.0
<duarouterConfiguration xmlns:xsi="http://www.w3.org/2001/XMLSchema-instance" xsi:noNamespaceSchemaLocation="http://sumo.dlr.de/xsd/duarouterConfiguration.xsd">

    <input>
        <net-file value="../networks/demo/main.net.xml"/>
        <route-files value="../routes/demo/train/812/pedestrian.trips.xml"/>
    </input>

    <output>
        <output-file value="../routes/demo/train/812/pedestrian.rou.xml"/>
        <alternatives-output value="NUL"/>
    </output>

    <time>
        <begin value="0"/>
        <end value="3600.0"/>
    </time>

    <report>
        <no-warnings value="true"/>
        <ignore-errors value="true"/>
        <no-step-log value="true"/>
    </report>

</duarouterConfiguration>
-->

<routes xmlns:xsi="http://www.w3.org/2001/XMLSchema-instance" xsi:noNamespaceSchemaLocation="http://sumo.dlr.de/xsd/routes_file.xsd">
    <person id="pedestrian0" depart="2.00">
        <walk edges="MalPl_2_1 TorPl_1_4 GowSt_2_2"/>
    </person>
    <person id="pedestrian1" depart="11.00">
        <walk edges="TorPl_1_2 TorPl_1_3 GowSt_1_1"/>
    </person>
    <person id="pedestrian2" depart="18.00">
        <walk edges="GorSq_2_3 BynPl_1_3 BynPl_1_2 BynPl_1_1 TorPl_1_4 TorPl_1_3 TorPl_1_2"/>
    </person>
    <person id="pedestrian3" depart="24.00">
        <walk edges="GowSt_1_2 TorPl_2_1 BynPl_2_3 BynPl_2_2 BynPl_2_1 GorSq_2_2 GorSq_2_1"/>
    </person>
    <person id="pedestrian4" depart="25.00">
        <walk edges="BynPl_2_2 BynPl_1_1 TorPl_1_4 TorPl_1_3 TorPl_1_2 TorPl_1_1"/>
    </person>
    <person id="pedestrian5" depart="26.00">
        <walk edges="HunSt_2_1 TorPl_1_2 TorPl_1_3"/>
    </person>
    <person id="pedestrian6" depart="34.00">
        <walk edges="TorPl_2_1 GowSt_1_1"/>
    </person>
    <person id="pedestrian7" depart="37.00">
        <walk edges="TorPl_2_1 TorPl_2_2 TorPl_2_3 HunSt_2_2"/>
    </person>
    <person id="pedestrian8" depart="39.00">
        <walk edges="CheMe_1_1 TorPl_1_2 HunSt_1_2"/>
    </person>
    <person id="pedestrian9" depart="39.00">
        <walk edges="RidGa_1_1 TorPl_2_2 TorPl_1_3"/>
    </person>
    <person id="pedestrian10" depart="40.00">
        <walk edges="GowSt_2_1 TorPl_2_2 TorPl_2_3 HunSt_2_1"/>
    </person>
    <person id="pedestrian11" depart="42.00">
        <walk edges="GorSq_2_2 BynPl_2_1 BynPl_2_2 BynPl_1_1 TorPl_1_4"/>
    </person>
    <person id="pedestrian12" depart="43.00">
        <walk edges="HunSt_1_2 TorPl_2_3 TorPl_2_2 GowSt_2_1"/>
    </person>
    <person id="pedestrian13" depart="52.00">
        <walk edges="GowSt_2_1 TorPl_2_2 TorPl_2_3 HunSt_1_2"/>
    </person>
    <person id="pedestrian14" depart="58.00">
        <walk edges="GowSt_2_2 TorPl_1_4 BynPl_1_1"/>
    </person>
    <person id="pedestrian15" depart="60.00">
        <walk edges="GowSt_2_1 TorPl_2_2 TorPl_2_3 TorPl_2_4"/>
    </person>
    <person id="pedestrian16" depart="64.00">
        <walk edges="BynPl_1_1 TorPl_1_4 TorPl_2_2 TorPl_2_3"/>
    </person>
    <person id="pedestrian17" depart="66.00">
        <walk edges="HunSt_2_2 TorPl_1_2 TorPl_1_3 TorPl_1_4"/>
    </person>
    <person id="pedestrian18" depart="67.00">
        <walk edges="GorSq_1_2 BynPl_1_3 BynPl_1_2 BynPl_1_1 TorPl_1_4 TorPl_2_2 RidGa_1_1"/>
    </person>
    <person id="pedestrian19" depart="78.00">
        <walk edges="BynPl_2_3 TorPl_2_1 TorPl_2_2 TorPl_2_3 TorPl_2_4"/>
    </person>
    <person id="pedestrian20" depart="78.00">
        <walk edges="MalSt_1_1 BynPl_2_3 BynPl_2_2 BynPl_1_3 GorSq_2_3"/>
    </person>
    <person id="pedestrian21" depart="78.00">
        <walk edges="MalPl_1_1 TorPl_1_4 GowSt_2_1"/>
    </person>
    <person id="pedestrian22" depart="81.00">
        <walk edges="HunSt_2_2 TorPl_1_2 TorPl_1_3 TorPl_1_4"/>
    </person>
    <person id="pedestrian23" depart="81.00">
        <walk edges="BynPl_2_3 MalPl_1_1"/>
    </person>
    <person id="pedestrian24" depart="100.00">
        <walk edges="TorPl_1_2 TorPl_1_3 TorPl_1_4 BynPl_1_1 BynPl_1_2 BynPl_1_3 GorSq_1_2 GorSq_1_3"/>
    </person>
    <person id="pedestrian25" depart="105.00">
        <walk edges="BynPl_1_1 TorPl_1_4"/>
    </person>
    <person id="pedestrian26" depart="109.00">
        <walk edges="BynPl_2_3 BynPl_2_2 BynPl_2_1 GorSq_2_2"/>
    </person>
    <person id="pedestrian27" depart="111.00">
        <walk edges="CheMe_1_1 TorPl_1_2"/>
    </person>
    <person id="pedestrian28" depart="120.00">
        <walk edges="MalPl_2_1 BynPl_1_1 BynPl_1_2 BynPl_1_3 GorSq_1_2"/>
    </person>
    <person id="pedestrian29" depart="120.00">
        <walk edges="RidGa_2_1 TorPl_2_2 TorPl_1_4 BynPl_1_1 BynPl_1_2 BynPl_1_3 GorSq_1_2"/>
    </person>
    <person id="pedestrian30" depart="121.00">
        <walk edges="BynPl_1_3 BynPl_1_2 BynPl_1_1 TorPl_1_4 TorPl_2_2 RidGa_2_1"/>
    </person>
    <person id="pedestrian31" depart="124.00">
        <walk edges="GowSt_2_1 TorPl_1_3 CheMe_2_1"/>
    </person>
    <person id="pedestrian32" depart="125.00">
        <walk edges="HunSt_1_2"/>
    </person>
    <person id="pedestrian33" depart="138.00">
        <walk edges="GowSt_1_1 TorPl_1_4 BynPl_1_1 BynPl_1_2 BynPl_1_3 GorSq_1_2"/>
    </person>
    <person id="pedestrian34" depart="138.00">
        <walk edges="TorPl_2_1 TorPl_1_3 CheMe_2_1"/>
    </person>
    <person id="pedestrian35" depart="141.00">
        <walk edges="BynPl_2_1 BynPl_2_2 BynPl_1_1 TorPl_1_4 TorPl_1_3 CheMe_1_1"/>
    </person>
    <person id="pedestrian36" depart="145.00">
        <walk edges="HunSt_1_1 TorPl_1_2 TorPl_1_3 TorPl_1_4 BynPl_2_3"/>
    </person>
    <person id="pedestrian37" depart="149.00">
        <walk edges="GowSt_2_1 TorPl_2_1 MalSt_1_1"/>
    </person>
    <person id="pedestrian38" depart="156.00">
        <walk edges="TorPl_1_1 TorPl_1_2 TorPl_1_3 TorPl_1_4 MalSt_1_1"/>
    </person>
    <person id="pedestrian39" depart="163.00">
        <walk edges="GorSq_1_2 BynPl_1_3 BynPl_1_2 BynPl_1_1 TorPl_1_4 TorPl_1_3 TorPl_1_2 HunSt_2_1"/>
    </person>
    <person id="pedestrian40" depart="167.00">
        <walk edges="BynPl_2_3 BynPl_2_2 BynPl_1_3 GorSq_1_2"/>
    </person>
    <person id="pedestrian41" depart="175.00">
        <walk edges="GorSq_2_2 BynPl_2_1 BynPl_2_2 BynPl_1_1 TorPl_1_4 GowSt_1_1"/>
    </person>
    <person id="pedestrian42" depart="177.00">
        <walk edges="HunSt_1_1 TorPl_1_2 TorPl_1_3 TorPl_1_4 BynPl_1_1 BynPl_1_2 BynPl_1_3 GorSq_1_2 GorSq_1_3"/>
    </person>
    <person id="pedestrian43" depart="180.00">
        <walk edges="BynPl_1_2 BynPl_1_1 MalPl_1_1"/>
    </person>
    <person id="pedestrian44" depart="182.00">
        <walk edges="GorSq_2_3 BynPl_1_3 BynPl_1_2 BynPl_1_1 TorPl_1_4 TorPl_1_3 TorPl_1_2 TorPl_1_1"/>
    </person>
    <person id="pedestrian45" depart="198.00">
        <walk edges="TorPl_1_2 TorPl_1_3 TorPl_1_4 BynPl_1_1"/>
    </person>
    <person id="pedestrian46" depart="202.00">
        <walk edges="GorSq_2_2 GorSq_1_2"/>
    </person>
    <person id="pedestrian47" depart="203.00">
        <walk edges="TorPl_1_1"/>
    </person>
    <person id="pedestrian48" depart="208.00">
        <walk edges="CheMe_1_1 TorPl_1_3 TorPl_1_4 BynPl_1_1 BynPl_2_2 BynPl_2_1 GorSq_2_2 GorSq_2_1"/>
    </person>
    <person id="pedestrian49" depart="217.00">
        <walk edges="TorPl_2_4 TorPl_2_3 TorPl_2_2 TorPl_2_1 BynPl_2_3 BynPl_2_2"/>
    </person>
    <person id="pedestrian50" depart="218.00">
        <walk edges="TorPl_1_2 TorPl_1_3 TorPl_1_4 BynPl_1_1 BynPl_2_2"/>
    </person>
    <person id="pedestrian51" depart="228.00">
        <walk edges="BynPl_1_1 BynPl_1_2 BynPl_1_3 GorSq_2_3"/>
    </person>
    <person id="pedestrian52" depart="229.00">
        <walk edges="GowSt_2_1 TorPl_2_2"/>
    </person>
    <person id="pedestrian53" depart="230.00">
        <walk edges="MalSt_2_1 TorPl_2_1 GowSt_1_1"/>
    </person>
    <person id="pedestrian54" depart="232.00">
        <walk edges="TorPl_1_4 TorPl_1_3 TorPl_1_2 HunSt_1_1"/>
    </person>
    <person id="pedestrian55" depart="234.00">
        <walk edges="MalSt_1_1 BynPl_2_3 BynPl_2_2 BynPl_1_3 GorSq_1_2 GorSq_1_3"/>
    </person>
    <person id="pedestrian56" depart="236.00">
        <walk edges="HunSt_2_2 HunSt_2_1"/>
    </person>
    <person id="pedestrian57" depart="239.00">
        <walk edges="GowSt_1_2 TorPl_1_3 CheMe_1_1"/>
    </person>
    <person id="pedestrian58" depart="241.00">
        <walk edges="GowSt_2_2 TorPl_2_2 RidGa_1_1"/>
    </person>
    <person id="pedestrian59" depart="250.00">
        <walk edges="BynPl_1_3 BynPl_2_1 GorSq_2_2"/>
    </person>
    <person id="pedestrian60" depart="258.00">
        <walk edges="HunSt_2_1 TorPl_2_3 TorPl_2_2 TorPl_2_1 BynPl_2_3 BynPl_2_2 BynPl_2_1"/>
    </person>
    <person id="pedestrian61" depart="268.00">
        <walk edges="TorPl_1_4 TorPl_2_1"/>
    </person>
    <person id="pedestrian62" depart="272.00">
        <walk edges="TorPl_2_3 TorPl_2_4"/>
    </person>
    <person id="pedestrian63" depart="272.00">
        <walk edges="TorPl_1_2 TorPl_2_3 RidGa_2_1"/>
    </person>
    <person id="pedestrian64" depart="272.00">
        <walk edges="BynPl_1_2 BynPl_1_1 TorPl_1_4 TorPl_2_2 TorPl_2_3 HunSt_1_2"/>
    </person>
    <person id="pedestrian65" depart="275.00">
        <walk edges="BynPl_1_2 BynPl_2_3"/>
    </person>
    <person id="pedestrian66" depart="276.00">
        <walk edges="HunSt_2_1 TorPl_1_2 TorPl_1_3 TorPl_1_4 MalPl_2_1"/>
    </person>
    <person id="pedestrian67" depart="281.00">
        <walk edges="TorPl_2_4 TorPl_2_3"/>
    </person>
    <person id="pedestrian68" depart="284.00">
        <walk edges="MalPl_1_1 BynPl_1_1 BynPl_1_2 BynPl_1_3 GorSq_1_1"/>
    </person>
    <person id="pedestrian69" depart="286.00">
        <walk edges="GorSq_2_1 GorSq_2_2 BynPl_2_1 BynPl_2_2 BynPl_2_3"/>
    </person>
    <person id="pedestrian70" depart="286.00">
        <walk edges="HunSt_2_2 TorPl_1_2 TorPl_1_3 GowSt_1_1"/>
    </person>
    <person id="pedestrian71" depart="289.00">
        <walk edges="HunSt_2_1 TorPl_1_2 TorPl_1_3 TorPl_1_4"/>
    </person>
    <person id="pedestrian72" depart="289.00">
        <walk edges="BynPl_1_1 TorPl_1_4 TorPl_2_2 TorPl_2_3 HunSt_1_2"/>
    </person>
    <person id="pedestrian73" depart="292.00">
        <walk edges="GowSt_2_2 TorPl_1_3 TorPl_1_2 HunSt_2_1"/>
    </person>
    <person id="pedestrian74" depart="292.00">
        <walk edges="BynPl_2_1 BynPl_1_3 GorSq_2_3"/>
    </person>
    <person id="pedestrian75" depart="301.00">
        <walk edges="TorPl_1_2 TorPl_1_3 GowSt_2_2"/>
    </person>
    <person id="pedestrian76" depart="302.00">
        <walk edges="HunSt_1_1 HunSt_1_2"/>
    </person>
    <person id="pedestrian77" depart="309.00">
        <walk edges="TorPl_2_1 GowSt_2_2"/>
    </person>
    <person id="pedestrian78" depart="315.00">
        <walk edges="GorSq_1_2 BynPl_1_3 BynPl_2_2 BynPl_2_3 TorPl_2_1"/>
    </person>
    <person id="pedestrian79" depart="321.00">
        <walk edges="GorSq_2_1 GorSq_2_2 BynPl_2_1 BynPl_2_2 BynPl_2_3 TorPl_2_1 TorPl_2_2 RidGa_1_1"/>
    </person>
    <person id="pedestrian80" depart="325.00">
        <walk edges="HunSt_1_2 TorPl_1_2 CheMe_1_1"/>
    </person>
    <person id="pedestrian81" depart="343.00">
        <walk edges="GowSt_2_1 TorPl_2_2 TorPl_2_3 TorPl_2_4"/>
    </person>
    <person id="pedestrian82" depart="358.00">
        <walk edges="CheMe_1_1 TorPl_1_3 TorPl_1_4 BynPl_1_1 BynPl_1_2"/>
    </person>
    <person id="pedestrian83" depart="368.00">
        <walk edges="HunSt_1_1 TorPl_1_2 TorPl_1_3 TorPl_1_4 BynPl_1_1"/>
    </person>
    <person id="pedestrian84" depart="371.00">
        <walk edges="GowSt_2_2 TorPl_1_4"/>
    </person>
    <person id="pedestrian85" depart="374.00">
        <walk edges="GorSq_1_2 GorSq_1_3"/>
    </person>
    <person id="pedestrian86" depart="375.00">
        <walk edges="GowSt_2_2 TorPl_1_4 MalPl_1_1"/>
    </person>
    <person id="pedestrian87" depart="381.00">
        <walk edges="BynPl_2_2 BynPl_2_1"/>
    </person>
    <person id="pedestrian88" depart="383.00">
        <walk edges="HunSt_2_1 TorPl_2_3 TorPl_2_2 TorPl_2_1"/>
    </person>
    <person id="pedestrian89" depart="387.00">
        <walk edges="MalSt_1_1 TorPl_1_4 TorPl_1_3 CheMe_1_1"/>
    </person>
    <person id="pedestrian90" depart="390.00">
        <walk edges="BynPl_1_3 GorSq_1_2"/>
    </person>
    <person id="pedestrian91" depart="394.00">
        <walk edges="TorPl_2_3 TorPl_2_2 TorPl_1_4"/>
    </person>
    <person id="pedestrian92" depart="401.00">
        <walk edges="GowSt_2_1 TorPl_1_4 BynPl_1_1 BynPl_1_2 BynPl_1_3"/>
    </person>
    <person id="pedestrian93" depart="409.00">
        <walk edges="GorSq_1_3 GorSq_1_2 BynPl_1_3 BynPl_1_2 BynPl_1_1 TorPl_1_4 GowSt_1_2"/>
    </person>
    <person id="pedestrian94" depart="414.00">
        <walk edges="RidGa_2_1 TorPl_2_2 TorPl_2_1 MalSt_2_1"/>
    </person>
    <person id="pedestrian95" depart="416.00">
        <walk edges="HunSt_2_2 HunSt_1_1"/>
    </person>
    <person id="pedestrian96" depart="436.00">
        <walk edges="BynPl_2_3 BynPl_2_2 BynPl_2_1 GorSq_2_2 GorSq_2_1"/>
    </person>
    <person id="pedestrian97" depart="450.00">
        <walk edges="HunSt_1_1 HunSt_2_2"/>
    </person>
    <person id="pedestrian98" depart="451.00">
        <walk edges="BynPl_2_2 BynPl_1_3 GorSq_1_2"/>
    </person>
    <person id="pedestrian99" depart="451.00">
        <walk edges="TorPl_2_3 TorPl_2_2 GowSt_1_1"/>
    </person>
    <person id="pedestrian100" depart="453.00">
        <walk edges="GorSq_2_2 BynPl_2_1 BynPl_1_2"/>
    </person>
    <person id="pedestrian101" depart="454.00">
        <walk edges="HunSt_2_2 TorPl_1_2 TorPl_1_3 TorPl_1_4 MalPl_1_1"/>
    </person>
    <person id="pedestrian102" depart="455.00">
        <walk edges="CheMe_1_1 TorPl_1_2 HunSt_2_2"/>
    </person>
    <person id="pedestrian103" depart="459.00">
        <walk edges="TorPl_2_2 TorPl_1_4 MalPl_1_1"/>
    </person>
    <person id="pedestrian104" depart="460.00">
        <walk edges="BynPl_1_2 BynPl_2_2"/>
    </person>
    <person id="pedestrian105" depart="465.00">
        <walk edges="BynPl_1_1 BynPl_1_2"/>
    </person>
    <person id="pedestrian106" depart="468.00">
        <walk edges="GorSq_2_3 BynPl_1_3 BynPl_1_2 BynPl_1_1 TorPl_1_4 TorPl_1_3 TorPl_1_2 TorPl_1_1"/>
    </person>
    <person id="pedestrian107" depart="468.00">
        <walk edges="GowSt_2_2 TorPl_1_3 CheMe_1_1"/>
    </person>
    <person id="pedestrian108" depart="470.00">
        <walk edges="GowSt_2_2 TorPl_1_3 TorPl_1_2 TorPl_1_1"/>
    </person>
    <person id="pedestrian109" depart="472.00">
        <walk edges="CheMe_1_1 TorPl_1_3 TorPl_1_4 BynPl_1_1 BynPl_1_2 BynPl_1_3 GorSq_1_1"/>
    </person>
    <person id="pedestrian110" depart="482.00">
        <walk edges="GowSt_2_2 TorPl_1_4 BynPl_1_1 BynPl_1_2 BynPl_1_3 GorSq_2_3"/>
    </person>
    <person id="pedestrian111" depart="487.00">
        <walk edges="RidGa_2_1 TorPl_2_3 TorPl_2_4"/>
    </person>
    <person id="pedestrian112" depart="488.00">
        <walk edges="HunSt_1_1 TorPl_2_3 TorPl_2_2 TorPl_2_1 MalSt_2_1"/>
    </person>
    <person id="pedestrian113" depart="498.00">
        <walk edges="TorPl_1_1 TorPl_2_3"/>
    </person>
    <person id="pedestrian114" depart="498.00">
        <walk edges="RidGa_2_1"/>
    </person>
    <person id="pedestrian115" depart="502.00">
        <walk edges="GowSt_2_1 TorPl_1_4 BynPl_1_1 BynPl_1_2 BynPl_1_3 GorSq_1_2 GorSq_1_3"/>
    </person>
    <person id="pedestrian116" depart="503.00">
        <walk edges="BynPl_1_1 TorPl_1_4 TorPl_1_3"/>
    </person>
    <person id="pedestrian117" depart="505.00">
        <walk edges="GowSt_1_2 TorPl_2_1 MalSt_2_1"/>
    </person>
    <person id="pedestrian118" depart="507.00">
        <walk edges="MalPl_1_1 BynPl_1_1"/>
    </person>
    <person id="pedestrian119" depart="515.00">
        <walk edges="GorSq_1_2 BynPl_1_3 BynPl_2_2 BynPl_2_3 TorPl_2_1"/>
    </person>
    <person id="pedestrian120" depart="516.00">
        <walk edges="GowSt_1_2 TorPl_1_3"/>
    </person>
    <person id="pedestrian121" depart="520.00">
        <walk edges="HunSt_1_2 TorPl_2_3 TorPl_2_2 TorPl_2_1 BynPl_2_3 BynPl_2_2 BynPl_2_1 GorSq_2_2"/>
    </person>
    <person id="pedestrian122" depart="522.00">
        <walk edges="BynPl_1_1 TorPl_1_4 TorPl_1_3 TorPl_1_2 TorPl_2_4"/>
    </person>
    <person id="pedestrian123" depart="524.00">
        <walk edges="BynPl_1_2 BynPl_1_1 TorPl_1_4 TorPl_1_3 TorPl_1_2 HunSt_1_1"/>
    </person>
    <person id="pedestrian124" depart="530.00">
        <walk edges="GorSq_2_3 BynPl_1_3 BynPl_2_2 BynPl_2_3 TorPl_2_1"/>
    </person>
    <person id="pedestrian125" depart="532.00">
        <walk edges="HunSt_2_1 TorPl_2_3 TorPl_2_2 TorPl_2_1 MalSt_2_1"/>
    </person>
    <person id="pedestrian126" depart="533.00">
        <walk edges="RidGa_2_1 TorPl_2_3 HunSt_1_1"/>
    </person>
    <person id="pedestrian127" depart="534.00">
        <walk edges="TorPl_2_4 HunSt_2_1"/>
    </person>
    <person id="pedestrian128" depart="536.00">
        <walk edges="BynPl_2_2 BynPl_2_3"/>
    </person>
    <person id="pedestrian129" depart="537.00">
        <walk edges="TorPl_2_2 TorPl_1_4 BynPl_1_1"/>
    </person>
    <person id="pedestrian130" depart="537.00">
        <walk edges="GowSt_1_2 TorPl_1_4 BynPl_1_1 BynPl_1_2"/>
    </person>
    <person id="pedestrian131" depart="545.00">
        <walk edges="TorPl_2_1 BynPl_2_3 BynPl_1_2"/>
    </person>
    <person id="pedestrian132" depart="546.00">
        <walk edges="GowSt_1_2 TorPl_2_2 RidGa_2_1"/>
    </person>
    <person id="pedestrian133" depart="555.00">
        <walk edges="GorSq_1_1 BynPl_1_3 BynPl_1_2 BynPl_1_1"/>
    </person>
    <person id="pedestrian134" depart="564.00">
        <walk edges="TorPl_1_2 HunSt_1_1"/>
    </person>
    <person id="pedestrian135" depart="570.00">
        <walk edges="BynPl_2_2 BynPl_1_1 TorPl_1_4 GowSt_2_2"/>
    </person>
    <person id="pedestrian136" depart="570.00">
        <walk edges="TorPl_1_4 TorPl_1_3 TorPl_1_2 TorPl_1_1"/>
    </person>
    <person id="pedestrian137" depart="575.00">
        <walk edges="TorPl_1_4 BynPl_1_1 BynPl_2_2 BynPl_2_1 GorSq_2_2"/>
    </person>
    <person id="pedestrian138" depart="576.00">
        <walk edges="HunSt_1_1 TorPl_1_2 TorPl_1_3 GowSt_1_1"/>
    </person>
    <person id="pedestrian139" depart="577.00">
        <walk edges="GorSq_1_1 GorSq_1_2 GorSq_1_3"/>
    </person>
    <person id="pedestrian140" depart="580.00">
        <walk edges="GorSq_1_3 GorSq_1_2 GorSq_1_1"/>
    </person>
    <person id="pedestrian141" depart="583.00">
        <walk edges="TorPl_2_3 HunSt_1_1"/>
    </person>
    <person id="pedestrian142" depart="584.00">
        <walk edges="BynPl_1_1 MalSt_2_1"/>
    </person>
    <person id="pedestrian143" depart="588.00">
        <walk edges="TorPl_1_3 GowSt_1_1"/>
    </person>
    <person id="pedestrian144" depart="600.00">
        <walk edges="BynPl_1_1 TorPl_1_4 TorPl_2_2 TorPl_2_3"/>
    </person>
    <person id="pedestrian145" depart="601.00">
        <walk edges="TorPl_1_4 TorPl_1_3 TorPl_1_2"/>
    </person>
    <person id="pedestrian146" depart="603.00">
        <walk edges="TorPl_2_2 TorPl_1_4 MalPl_1_1"/>
    </person>
    <person id="pedestrian147" depart="604.00">
        <walk edges="TorPl_2_2 GowSt_2_2"/>
    </person>
    <person id="pedestrian148" depart="604.00">
        <walk edges="GowSt_1_1 GowSt_2_2"/>
    </person>
    <person id="pedestrian149" depart="606.00">
        <walk edges="TorPl_1_4 BynPl_1_1"/>
    </person>
    <person id="pedestrian150" depart="608.00">
        <walk edges="BynPl_1_1 TorPl_1_4 TorPl_1_3 TorPl_1_2 HunSt_1_1"/>
    </person>
    <person id="pedestrian151" depart="610.00">
        <walk edges="HunSt_2_1 TorPl_2_3 TorPl_2_2"/>
    </person>
    <person id="pedestrian152" depart="613.00">
        <walk edges="TorPl_1_2 CheMe_2_1"/>
    </person>
    <person id="pedestrian153" depart="614.00">
        <walk edges="BynPl_1_1 TorPl_1_4 TorPl_2_2 TorPl_2_3 HunSt_1_2"/>
    </person>
    <person id="pedestrian154" depart="616.00">
        <walk edges="TorPl_1_2 TorPl_1_3 TorPl_1_4 BynPl_1_1 BynPl_2_2 BynPl_2_1 GorSq_2_2"/>
    </person>
    <person id="pedestrian155" depart="617.00">
        <walk edges="GorSq_1_3 GorSq_2_2 BynPl_2_1"/>
    </person>
    <person id="pedestrian156" depart="617.00">
        <walk edges="HunSt_1_1 TorPl_1_2 TorPl_1_3 TorPl_1_4 BynPl_1_1"/>
    </person>
    <person id="pedestrian157" depart="619.00">
        <walk edges="TorPl_2_3 TorPl_2_2 TorPl_2_1 MalSt_1_1"/>
    </person>
    <person id="pedestrian158" depart="620.00">
        <walk edges="TorPl_1_4 GowSt_1_2"/>
    </person>
    <person id="pedestrian159" depart="624.00">
        <walk edges="GorSq_1_1 BynPl_1_3 BynPl_1_2 BynPl_1_1 TorPl_1_4 TorPl_2_2"/>
    </person>
    <person id="pedestrian160" depart="625.00">
        <walk edges="HunSt_1_2 TorPl_2_3 TorPl_2_2 GowSt_2_2"/>
    </person>
    <person id="pedestrian161" depart="631.00">
        <walk edges="TorPl_1_1 TorPl_1_2 TorPl_1_3"/>
    </person>
    <person id="pedestrian162" depart="643.00">
        <walk edges="TorPl_1_4 BynPl_1_1 BynPl_1_2 BynPl_1_3 GorSq_1_2"/>
    </person>
    <person id="pedestrian163" depart="647.00">
        <walk edges="GorSq_2_3 BynPl_1_3 BynPl_1_2 BynPl_1_1 TorPl_1_4 TorPl_1_3"/>
    </person>
    <person id="pedestrian164" depart="647.00">
        <walk edges="HunSt_1_2 TorPl_2_3 TorPl_2_2 TorPl_2_1 MalSt_2_1"/>
    </person>
    <person id="pedestrian165" depart="648.00">
        <walk edges="TorPl_2_2 TorPl_1_4 BynPl_1_1 BynPl_1_2 BynPl_1_3 GorSq_2_3"/>
    </person>
    <person id="pedestrian166" depart="649.00">
        <walk edges="BynPl_2_2 BynPl_1_1 TorPl_1_4"/>
    </person>
    <person id="pedestrian167" depart="655.00">
        <walk edges="TorPl_1_2 TorPl_1_3 TorPl_1_4 BynPl_1_1 BynPl_1_2"/>
    </person>
    <person id="pedestrian168" depart="660.00">
        <walk edges="BynPl_2_1 GorSq_2_2 GorSq_2_1"/>
    </person>
    <person id="pedestrian169" depart="669.00">
        <walk edges="GorSq_1_3 GorSq_1_2 BynPl_1_3 BynPl_1_2 BynPl_1_1 TorPl_1_4 TorPl_2_2"/>
    </person>
    <person id="pedestrian170" depart="671.00">
        <walk edges="HunSt_2_2 TorPl_1_2 TorPl_1_3 TorPl_1_4"/>
    </person>
    <person id="pedestrian171" depart="674.00">
        <walk edges="HunSt_2_2 HunSt_1_2"/>
    </person>
    <person id="pedestrian172" depart="680.00">
        <walk edges="GorSq_2_1 GorSq_2_2 BynPl_2_1 BynPl_2_2 BynPl_2_3 TorPl_2_1 TorPl_2_2 TorPl_2_3 TorPl_2_4"/>
    </person>
    <person id="pedestrian173" depart="682.00">
        <walk edges="GorSq_2_1 GorSq_2_2 BynPl_2_1 BynPl_2_2 BynPl_1_1 TorPl_1_4 TorPl_1_3 CheMe_2_1"/>
    </person>
    <person id="pedestrian174" depart="684.00">
        <walk edges="CheMe_2_1 TorPl_1_3 TorPl_1_4 BynPl_1_1 BynPl_1_2 BynPl_1_3 GorSq_2_3"/>
    </person>
    <person id="pedestrian175" depart="685.00">
        <walk edges="CheMe_1_1 TorPl_1_3 GowSt_2_1"/>
    </person>
    <person id="pedestrian176" depart="696.00">
        <walk edges="TorPl_1_2 TorPl_2_3 RidGa_1_1"/>
    </person>
    <person id="pedestrian177" depart="697.00">
        <walk edges="TorPl_1_3 TorPl_1_2 HunSt_1_1"/>
    </person>
    <person id="pedestrian178" depart="700.00">
        <walk edges="HunSt_1_1 TorPl_1_2 TorPl_1_3 GowSt_2_2"/>
    </person>
    <person id="pedestrian179" depart="703.00">
        <walk edges="TorPl_2_1 GowSt_2_2"/>
    </person>
    <person id="pedestrian180" depart="705.00">
        <walk edges="TorPl_1_2 HunSt_1_2"/>
    </person>
    <person id="pedestrian181" depart="705.00">
        <walk edges="MalPl_2_1 TorPl_1_4 TorPl_2_2 RidGa_1_1"/>
    </person>
    <person id="pedestrian182" depart="707.00">
        <walk edges="CheMe_2_1 TorPl_1_2 TorPl_2_3 RidGa_2_1"/>
    </person>
    <person id="pedestrian183" depart="714.00">
        <walk edges="MalPl_2_1 TorPl_1_4 GowSt_2_1"/>
    </person>
    <person id="pedestrian184" depart="721.00">
        <walk edges="GorSq_2_1 GorSq_1_2 BynPl_1_3"/>
    </person>
    <person id="pedestrian185" depart="723.00">
        <walk edges="HunSt_1_2 TorPl_2_3 TorPl_2_2 TorPl_2_1 BynPl_2_3 BynPl_2_2 BynPl_2_1 GorSq_2_2"/>
    </person>
    <person id="pedestrian186" depart="726.00">
        <walk edges="TorPl_1_2 TorPl_1_3 GowSt_1_2"/>
    </person>
    <person id="pedestrian187" depart="727.00">
        <walk edges="GorSq_1_1 BynPl_1_3 BynPl_2_1"/>
    </person>
    <person id="pedestrian188" depart="728.00">
        <walk edges="MalPl_2_1 BynPl_1_1"/>
    </person>
    <person id="pedestrian189" depart="731.00">
        <walk edges="RidGa_2_1 TorPl_2_2 TorPl_2_1 MalSt_2_1"/>
    </person>
    <person id="pedestrian190" depart="732.00">
        <walk edges="GowSt_2_1 TorPl_2_1 BynPl_2_3 BynPl_2_2 BynPl_2_1"/>
    </person>
    <person id="pedestrian191" depart="733.00">
        <walk edges="BynPl_1_2 BynPl_1_1 TorPl_1_4 TorPl_2_2 TorPl_2_3"/>
    </person>
    <person id="pedestrian192" depart="743.00">
        <walk edges="BynPl_1_3 BynPl_1_2 BynPl_1_1 TorPl_1_4 TorPl_1_3 TorPl_1_2 HunSt_2_2"/>
    </person>
    <person id="pedestrian193" depart="743.00">
        <walk edges="HunSt_2_2 HunSt_2_1"/>
    </person>
    <person id="pedestrian194" depart="747.00">
        <walk edges="GowSt_1_1 TorPl_1_4 BynPl_2_3"/>
    </person>
    <person id="pedestrian195" depart="749.00">
        <walk edges="TorPl_2_2 TorPl_2_1 BynPl_2_3 BynPl_2_2 BynPl_2_1"/>
    </person>
    <person id="pedestrian196" depart="751.00">
        <walk edges="GorSq_2_1 GorSq_2_2 BynPl_2_1 BynPl_2_2 BynPl_1_1 TorPl_1_4 TorPl_1_3 CheMe_1_1"/>
    </person>
    <person id="pedestrian197" depart="754.00">
        <walk edges="TorPl_2_4"/>
    </person>
    <person id="pedestrian198" depart="754.00">
        <walk edges="GowSt_1_1 TorPl_1_4 BynPl_1_1 BynPl_1_2 BynPl_1_3 GorSq_1_2 GorSq_1_3"/>
    </person>
    <person id="pedestrian199" depart="760.00">
        <walk edges="MalSt_1_1 TorPl_1_4 TorPl_1_3 CheMe_2_1"/>
    </person>
    <person id="pedestrian200" depart="760.00">
        <walk edges="BynPl_1_3 BynPl_1_2 BynPl_1_1 TorPl_1_4 TorPl_1_3 CheMe_1_1"/>
    </person>
    <person id="pedestrian201" depart="762.00">
        <walk edges="MalPl_2_1 BynPl_1_1 BynPl_1_2 BynPl_1_3 GorSq_1_2"/>
    </person>
    <person id="pedestrian202" depart="765.00">
        <walk edges="BynPl_2_3 BynPl_1_1"/>
    </person>
    <person id="pedestrian203" depart="765.00">
        <walk edges="RidGa_2_1 TorPl_2_2 TorPl_1_4 BynPl_1_1 BynPl_1_2 BynPl_1_3"/>
    </person>
    <person id="pedestrian204" depart="765.00">
        <walk edges="HunSt_2_2 TorPl_1_2 TorPl_1_3 TorPl_1_4 BynPl_1_1 BynPl_1_2"/>
    </person>
    <person id="pedestrian205" depart="772.00">
        <walk edges="GorSq_2_2 BynPl_2_1 BynPl_2_2 BynPl_2_3 TorPl_2_1 TorPl_2_2 TorPl_2_3"/>
    </person>
    <person id="pedestrian206" depart="777.00">
        <walk edges="GorSq_1_1 BynPl_1_3 BynPl_2_1 GorSq_2_2"/>
    </person>
    <person id="pedestrian207" depart="778.00">
        <walk edges="HunSt_1_1 TorPl_2_3 TorPl_2_2 GowSt_2_1"/>
    </person>
    <person id="pedestrian208" depart="788.00">
        <walk edges="HunSt_2_2 HunSt_1_2"/>
    </person>
    <person id="pedestrian209" depart="791.00">
        <walk edges="MalPl_1_1 TorPl_1_4 TorPl_1_3 TorPl_1_2 TorPl_1_1"/>
    </person>
    <person id="pedestrian210" depart="798.00">
        <walk edges="BynPl_2_3 TorPl_2_1 GowSt_1_2"/>
    </person>
    <person id="pedestrian211" depart="799.00">
        <walk edges="BynPl_1_3 BynPl_1_2 BynPl_1_1 TorPl_1_4 TorPl_2_2 TorPl_2_3 HunSt_1_2"/>
    </person>
    <person id="pedestrian212" depart="807.00">
        <walk edges="HunSt_1_1 TorPl_2_3 TorPl_2_2 GowSt_2_1"/>
    </person>
    <person id="pedestrian213" depart="809.00">
        <walk edges="TorPl_2_3 TorPl_2_2 TorPl_2_1 MalSt_1_1"/>
    </person>
    <person id="pedestrian214" depart="810.00">
        <walk edges="GorSq_2_2 BynPl_2_1 BynPl_2_2 BynPl_1_1 TorPl_1_4 TorPl_1_3 TorPl_1_2 HunSt_2_2"/>
    </person>
    <person id="pedestrian215" depart="813.00">
        <walk edges="TorPl_1_3 TorPl_1_4 MalSt_1_1"/>
    </person>
    <person id="pedestrian216" depart="821.00">
        <walk edges="TorPl_2_4 TorPl_2_3"/>
    </person>
    <person id="pedestrian217" depart="823.00">
        <walk edges="MalSt_1_1 TorPl_2_1 TorPl_2_2 TorPl_2_3 HunSt_1_2"/>
    </person>
    <person id="pedestrian218" depart="824.00">
        <walk edges="BynPl_1_1 BynPl_2_2 BynPl_2_1"/>
    </person>
    <person id="pedestrian219" depart="829.00">
        <walk edges="TorPl_2_4 HunSt_1_1"/>
    </person>
    <person id="pedestrian220" depart="830.00">
        <walk edges="GorSq_1_3 GorSq_1_2 BynPl_1_3 BynPl_1_2 BynPl_1_1 TorPl_1_4 TorPl_2_2 RidGa_1_1"/>
    </person>
    <person id="pedestrian221" depart="840.00">
        <walk edges="HunSt_2_2 HunSt_1_2"/>
    </person>
    <person id="pedestrian222" depart="845.00">
        <walk edges="BynPl_1_2 BynPl_1_1 TorPl_1_4 TorPl_1_3 CheMe_1_1"/>
    </person>
    <person id="pedestrian223" depart="854.00">
        <walk edges="TorPl_2_2 TorPl_1_3 CheMe_2_1"/>
    </person>
    <person id="pedestrian224" depart="858.00">
        <walk edges="TorPl_1_3 TorPl_1_2 HunSt_1_2"/>
    </person>
    <person id="pedestrian225" depart="859.00">
        <walk edges="BynPl_2_3 TorPl_1_4 TorPl_1_3 TorPl_1_2 TorPl_1_1"/>
    </person>
    <person id="pedestrian226" depart="861.00">