<?xml version="1.0" encoding="UTF-8"?>

<!-- generated on 2025-11-19 09:51:08.223114 by randomTrips.py v1_24_0+0000-b72eb3fabc8
<configuration>
    <net-file value="../networks/demo/main.net.xml"/>
    <output-trip-file value="../routes/demo/pedestrian.trips.xml"/>
    <route-file value="../routes/demo/pedestrian.rou.xml"/>
    <pedestrians value="True"/>
    <prefix value="pedestrian"/>
    <seed value="1041"/>
    <period value="4.0"/>
    <binomial value="100"/>
</configuration>
-->

<!-- generated on 2025-11-19 09:51:08 by Eclipse SUMO duarouter Version 1.24.0
<duarouterConfiguration xmlns:xsi="http://www.w3.org/2001/XMLSchema-instance" xsi:noNamespaceSchemaLocation="http://sumo.dlr.de/xsd/duarouterConfiguration.xsd">

    <input>
        <net-file value="../networks/demo/main.net.xml"/>
        <route-files value="../routes/demo/pedestrian.trips.xml"/>
    </input>

    <output>
        <output-file value="../routes/demo/pedestrian.rou.xml"/>
        <alternatives-output value="NUL"/>
    </output>

    <time>
        <begin value="0"/>
        <end value="3600.0"/>
    </time>

    <report>
        <no-warnings value="true"/>
        <ignore-errors value="true"/>
        <no-step-log value="true"/>
    </report>

</duarouterConfiguration>
-->

<routes xmlns:xsi="http://www.w3.org/2001/XMLSchema-instance" xsi:noNamespaceSchemaLocation="http://sumo.dlr.de/xsd/routes_file.xsd">
    <person id="pedestrian0" depart="1.00">
        <walk edges="TorPl_1_5 TorPl_2_3"/>
    </person>
    <person id="pedestrian1" depart="8.00">
        <walk edges="CheMe_1_1 TorPl_1_3 TorPl_1_4 GowSt_2_2"/>
    </person>
    <person id="pedestrian2" depart="11.00">
        <walk edges="MalSt_2_1 TorPl_2_1 TorPl_2_2 TorPl_2_3 TorPl_2_4 HunSt_1_1"/>
    </person>
    <person id="pedestrian3" depart="12.00">
        <walk edges="HunSt_1_1 TorPl_2_4"/>
    </person>
    <person id="pedestrian4" depart="13.00">
        <walk edges="GowSt_1_2 TorPl_1_5 MalPl_2_1"/>
    </person>
    <person id="pedestrian5" depart="14.00">
        <walk edges="HunSt_2_1 TorPl_2_4 TorPl_2_3 GowSt_2_2 GowSt_2_1"/>
    </person>
    <person id="pedestrian6" depart="17.00">
        <walk edges="GorSq_2_1 GorSq_2_2 BynPl_2_1 BynPl_2_2 BynPl_1_1"/>
    </person>
    <person id="pedestrian7" depart="22.00">
        <walk edges="GowSt_1_1 GowSt_1_2 TorPl_2_2 TorPl_2_1 MalSt_2_1"/>
    </person>
    <person id="pedestrian8" depart="24.00">
        <walk edges="BynPl_2_2 BynPl_2_3 TorPl_2_1 TorPl_2_2 TorPl_2_3 TorPl_2_4 TorPl_2_5"/>
    </person>
    <person id="pedestrian9" depart="26.00">
        <walk edges="GorSq_2_3 BynPl_1_3 BynPl_1_2 BynPl_1_1 TorPl_1_5 GowSt_2_3"/>
    </person>
    <person id="pedestrian10" depart="26.00">
        <walk edges="MalPl_1_1 TorPl_1_5 GowSt_2_2 GowSt_2_1"/>
    </person>
    <person id="pedestrian11" depart="37.00">
        <walk edges="GorSq_1_3 GorSq_2_2 BynPl_2_1"/>
    </person>
    <person id="pedestrian12" depart="46.00">
        <walk edges="BynPl_1_2 BynPl_2_3"/>
    </person>
    <person id="pedestrian13" depart="48.00">
        <walk edges="TorPl_2_3 TorPl_2_2 TorPl_2_1 MalSt_1_1"/>
    </person>
    <person id="pedestrian14" depart="50.00">
        <walk edges="TorPl_2_4 HunSt_1_2"/>
    </person>
    <person id="pedestrian15" depart="65.00">
        <walk edges="GorSq_1_1 BynPl_1_3 BynPl_2_2 BynPl_2_3 MalSt_2_1"/>
    </person>
    <person id="pedestrian16" depart="67.00">
        <walk edges="BynPl_1_2 BynPl_1_1 TorPl_1_5 GowSt_2_3"/>
    </person>
    <person id="pedestrian17" depart="73.00">
        <walk edges="TorPl_1_1 TorPl_1_2 TorPl_1_3 TorPl_1_4 TorPl_1_5 BynPl_1_1 BynPl_1_2 BynPl_1_3 GorSq_1_2"/>
    </person>
    <person id="pedestrian18" depart="78.00">
        <walk edges="GowSt_2_3 TorPl_2_2"/>
    </person>
    <person id="pedestrian19" depart="81.00">
        <walk edges="TorPl_1_5 TorPl_2_2"/>
    </person>
    <person id="pedestrian20" depart="84.00">
        <walk edges="TorPl_2_2 TorPl_2_1"/>
    </person>
    <person id="pedestrian21" depart="90.00">
        <walk edges="BynPl_1_2 BynPl_1_1 TorPl_1_5 GowSt_1_2"/>
    </person>
    <person id="pedestrian22" depart="92.00">
        <walk edges="GowSt_2_3 TorPl_2_3"/>
    </person>
    <person id="pedestrian23" depart="96.00">
        <walk edges="GorSq_1_1 BynPl_1_3 BynPl_2_2 BynPl_2_3"/>
    </person>
    <person id="pedestrian24" depart="108.00">
        <walk edges="GowSt_2_1 GowSt_2_2 TorPl_2_2 TorPl_2_1 BynPl_2_3"/>
    </person>
    <person id="pedestrian25" depart="109.00">
        <walk edges="TorPl_2_2 TorPl_2_3 RidGa_1_1"/>
    </person>
    <person id="pedestrian26" depart="116.00">
        <walk edges="BynPl_2_3 TorPl_1_5 GowSt_1_2 GowSt_1_1"/>
    </person>
    <person id="pedestrian27" depart="123.00">
        <walk edges="TorPl_1_2 TorPl_1_3 TorPl_1_4 TorPl_1_5 MalSt_1_1"/>
    </person>
    <person id="pedestrian28" depart="145.00">
        <walk edges="MalSt_2_1 TorPl_2_1 TorPl_2_2 TorPl_2_3 RidGa_2_1"/>
    </person>
    <person id="pedestrian29" depart="152.00">
        <walk edges="HunSt_1_1 TorPl_2_4 TorPl_2_3 GowSt_2_2 GowSt_2_1"/>
    </person>
    <person id="pedestrian30" depart="162.00">
        <walk edges="BynPl_2_3 TorPl_2_1"/>
    </person>
    <person id="pedestrian31" depart="163.00">
        <walk edges="GowSt_1_3 TorPl_2_2 TorPl_2_1 MalSt_1_1"/>
    </person>
    <person id="pedestrian32" depart="172.00">
        <walk edges="BynPl_2_1 BynPl_2_2 BynPl_1_2"/>
    </person>
    <person id="pedestrian33" depart="173.00">
        <walk edges="HunSt_2_2 TorPl_2_4 TorPl_2_3 GowSt_2_2 GowSt_2_1"/>
    </person>
    <person id="pedestrian34" depart="177.00">
        <walk edges="TorPl_1_5 BynPl_2_3"/>
    </person>
    <person id="pedestrian35" depart="184.00">
        <walk edges="GowSt_2_1 GowSt_2_2 GowSt_1_3"/>
    </person>
    <person id="pedestrian36" depart="187.00">
        <walk edges="BynPl_1_1 MalPl_1_1"/>
    </person>
    <person id="pedestrian37" depart="188.00">
        <walk edges="MalPl_2_1 TorPl_1_5 TorPl_2_3"/>
    </person>
    <person id="pedestrian38" depart="193.00">
        <walk edges="HunSt_1_1 TorPl_1_2 TorPl_1_3 TorPl_1_4 GowSt_1_2"/>
    </person>
    <person id="pedestrian39" depart="195.00">
        <walk edges="TorPl_2_1 MalSt_2_1"/>
    </person>
    <person id="pedestrian40" depart="204.00">
        <walk edges="HunSt_1_1 TorPl_1_2 TorPl_1_3 TorPl_1_4 GowSt_1_2"/>
    </person>
    <person id="pedestrian41" depart="210.00">
        <walk edges="GorSq_2_2 BynPl_2_1 BynPl_2_2 BynPl_1_1 MalPl_2_1"/>
    </person>
    <person id="pedestrian42" depart="215.00">
        <walk edges="BynPl_1_2 BynPl_1_1 TorPl_1_5 TorPl_1_4 TorPl_1_3 TorPl_1_2"/>
    </person>
    <person id="pedestrian43" depart="215.00">
        <walk edges="CheMe_2_1 TorPl_1_2 HunSt_2_2"/>
    </person>
    <person id="pedestrian44" depart="219.00">
        <walk edges="RidGa_1_1 TorPl_2_4 HunSt_2_1"/>
    </person>
    <person id="pedestrian45" depart="219.00">
        <walk edges="TorPl_2_4 TorPl_2_3 TorPl_2_2 TorPl_2_1 BynPl_2_3 BynPl_2_2 BynPl_2_1"/>
    </person>
    <person id="pedestrian46" depart="224.00">
        <walk edges="BynPl_2_1 BynPl_2_2 BynPl_2_3 TorPl_2_1 TorPl_2_2 TorPl_2_3 TorPl_2_4 HunSt_2_1"/>
    </person>
    <person id="pedestrian47" depart="224.00">
        <walk edges="MalPl_1_1 MalSt_2_1"/>
    </person>
    <person id="pedestrian48" depart="227.00">
        <walk edges="TorPl_2_4 HunSt_2_1"/>
    </person>
    <person id="pedestrian49" depart="229.00">
        <walk edges="MalPl_2_1 BynPl_1_1"/>
    </person>
    <person id="pedestrian50" depart="235.00">
        <walk edges="TorPl_1_5 GowSt_2_2"/>
    </person>
    <person id="pedestrian51" depart="240.00">
        <walk edges="GowSt_1_1 GowSt_1_2 TorPl_1_5 BynPl_2_3"/>
    </person>
    <person id="pedestrian52" depart="241.00">
        <walk edges="TorPl_1_3 TorPl_1_4 TorPl_1_5 BynPl_1_1 BynPl_2_2 BynPl_2_1"/>
    </person>
    <person id="pedestrian53" depart="242.00">
        <walk edges="GorSq_2_2 BynPl_2_1 BynPl_2_2 BynPl_2_3 TorPl_2_1 TorPl_2_2 GowSt_1_3"/>
    </person>
    <person id="pedestrian54" depart="245.00">
        <walk edges="GowSt_1_1 GowSt_1_2 TorPl_1_5"/>
    </person>
    <person id="pedestrian55" depart="245.00">
        <walk edges="GowSt_2_3 TorPl_1_5 BynPl_1_1 BynPl_2_2 BynPl_2_1"/>
    </person>
    <person id="pedestrian56" depart="247.00">
        <walk edges="GowSt_1_1 GowSt_1_2 TorPl_1_4 TorPl_1_3 TorPl_1_2 HunSt_2_2"/>
    </person>
    <person id="pedestrian57" depart="252.00">
        <walk edges="BynPl_1_2 BynPl_2_3 MalSt_1_1"/>
    </person>
    <person id="pedestrian58" depart="255.00">
        <walk edges="TorPl_1_1 TorPl_2_4 TorPl_2_3 TorPl_2_2 TorPl_2_1 MalSt_2_1"/>
    </person>
    <person id="pedestrian59" depart="257.00">
        <walk edges="HunSt_1_1 TorPl_2_4 TorPl_2_3 GowSt_1_3"/>
    </person>
    <person id="pedestrian60" depart="257.00">
        <walk edges="BynPl_1_3 GorSq_1_2"/>
    </person>
    <person id="pedestrian61" depart="263.00">
        <walk edges="HunSt_2_1 TorPl_1_2 TorPl_1_3 TorPl_1_4 TorPl_1_5 BynPl_1_1 BynPl_1_2 BynPl_1_3"/>
    </person>
    <person id="pedestrian62" depart="263.00">
        <walk edges="TorPl_1_3 CheMe_1_1"/>
    </person>
    <person id="pedestrian63" depart="263.00">
        <walk edges="GowSt_1_3 GowSt_2_2"/>
    </person>
    <person id="pedestrian64" depart="268.00">
        <walk edges="GowSt_2_3 GowSt_1_2"/>
    </person>
    <person id="pedestrian65" depart="273.00">
        <walk edges="RidGa_1_1 TorPl_2_3 TorPl_1_5 BynPl_1_1 BynPl_1_2 BynPl_1_3"/>
    </person>
    <person id="pedestrian66" depart="279.00">
        <walk edges="TorPl_1_1 TorPl_1_2 TorPl_1_3 TorPl_1_4 TorPl_1_5 BynPl_1_1"/>
    </person>
    <person id="pedestrian67" depart="280.00">
        <walk edges="TorPl_2_2 TorPl_2_3 TorPl_2_4 TorPl_1_1"/>
    </person>
    <person id="pedestrian68" depart="292.00">
        <walk edges="BynPl_1_3 BynPl_1_2 BynPl_1_1 TorPl_1_5"/>
    </person>
    <person id="pedestrian69" depart="295.00">
        <walk edges="CheMe_2_1 TorPl_1_2 TorPl_2_4"/>
    </person>
    <person id="pedestrian70" depart="298.00">
        <walk edges="GorSq_1_2 GorSq_2_3"/>
    </person>
    <person id="pedestrian71" depart="298.00">
        <walk edges="HunSt_1_1 TorPl_2_4 TorPl_2_3 GowSt_2_2 GowSt_2_1"/>
    </person>
    <person id="pedestrian72" depart="300.00">
        <walk edges="GorSq_2_1 GorSq_2_2 BynPl_2_1 BynPl_2_2 BynPl_1_1"/>
    </person>
    <person id="pedestrian73" depart="306.00">
        <walk edges="RidGa_1_1 TorPl_2_3 TorPl_1_5"/>
    </person>
    <person id="pedestrian74" depart="307.00">
        <walk edges="CheMe_1_1 TorPl_1_2 TorPl_2_5"/>
    </person>
    <person id="pedestrian75" depart="309.00">
        <walk edges="BynPl_1_2 BynPl_2_2 BynPl_2_1"/>
    </person>
    <person id="pedestrian76" depart="310.00">
        <walk edges="RidGa_2_1 TorPl_2_3 TorPl_1_5"/>
    </person>
    <person id="pedestrian77" depart="311.00">
        <walk edges="BynPl_2_2 BynPl_1_1 TorPl_1_5 TorPl_1_4 TorPl_1_3 TorPl_1_2 TorPl_1_1"/>
    </person>
    <person id="pedestrian78" depart="312.00">
        <walk edges="TorPl_2_4 TorPl_2_3 TorPl_1_5 BynPl_1_1 BynPl_1_2"/>
    </person>
    <person id="pedestrian79" depart="313.00">
        <walk edges="TorPl_2_1 TorPl_2_2"/>
    </person>
    <person id="pedestrian80" depart="314.00">
        <walk edges="HunSt_1_2 TorPl_2_4 TorPl_2_3 TorPl_2_2 TorPl_2_1 MalSt_1_1"/>
    </person>
    <person id="pedestrian81" depart="321.00">
        <walk edges="TorPl_1_2 TorPl_2_4 TorPl_2_3"/>
    </person>
    <person id="pedestrian82" depart="332.00">
        <walk edges="GowSt_1_2 TorPl_1_5 BynPl_1_1 BynPl_2_2"/>
    </person>
    <person id="pedestrian83" depart="341.00">
        <walk edges="GowSt_2_3 TorPl_1_4 TorPl_1_3 TorPl_1_2 TorPl_2_5"/>
    </person>
    <person id="pedestrian84" depart="341.00">
        <walk edges="BynPl_2_3 TorPl_1_5 TorPl_1_4 TorPl_1_3 TorPl_1_2 HunSt_1_1"/>
    </person>
    <person id="pedestrian85" depart="342.00">
        <walk edges="TorPl_1_1 TorPl_1_2 TorPl_1_3 TorPl_1_4 TorPl_1_5 BynPl_1_1 BynPl_1_2 BynPl_1_3 GorSq_1_2"/>
    </person>
    <person id="pedestrian86" depart="344.00">
        <walk edges="GowSt_2_2 TorPl_2_2 TorPl_2_1 BynPl_2_3 BynPl_2_2 BynPl_2_1"/>
    </person>
    <person id="pedestrian87" depart="345.00">
        <walk edges="HunSt_2_2 TorPl_2_4"/>
    </person>
    <person id="pedestrian88" depart="346.00">
        <walk edges="HunSt_1_2 TorPl_2_4 TorPl_2_3 TorPl_2_2 TorPl_2_1 MalSt_2_1"/>
    </person>
    <person id="pedestrian89" depart="350.00">
        <walk edges="TorPl_1_1 TorPl_2_4 TorPl_2_3 GowSt_1_3"/>
    </person>
    <person id="pedestrian90" depart="353.00">
        <walk edges="GorSq_1_3 GorSq_1_2 BynPl_1_3 BynPl_2_2 BynPl_2_3"/>
    </person>
    <person id="pedestrian91" depart="353.00">
        <walk edges="BynPl_1_1 TorPl_1_5 GowSt_1_2"/>
    </person>
    <person id="pedestrian92" depart="360.00">
        <walk edges="CheMe_1_1 TorPl_1_3 TorPl_1_4 GowSt_1_2 GowSt_1_1"/>
    </person>
    <person id="pedestrian93" depart="360.00">
        <walk edges="MalPl_1_1 TorPl_2_1 TorPl_2_2"/>
    </person>
    <person id="pedestrian94" depart="362.00">
        <walk edges="MalPl_1_1 TorPl_1_5 TorPl_2_3"/>
    </person>
    <person id="pedestrian95" depart="363.00">
        <walk edges="TorPl_2_4 TorPl_2_3 GowSt_1_2 GowSt_1_1"/>
    </person>
    <person id="pedestrian96" depart="365.00">
        <walk edges="MalPl_1_1 TorPl_1_5 GowSt_2_3"/>
    </person>
    <person id="pedestrian97" depart="370.00">
        <walk edges="GowSt_1_3 TorPl_2_3 TorPl_2_4 TorPl_1_1"/>
    </person>
    <person id="pedestrian98" depart="372.00">
        <walk edges="GowSt_2_3 TorPl_1_5 MalPl_1_1"/>
    </person>
    <person id="pedestrian99" depart="376.00">
        <walk edges="HunSt_2_2 TorPl_1_2 TorPl_1_3 TorPl_1_4 TorPl_1_5 BynPl_1_1 BynPl_2_2"/>
    </person>
    <person id="pedestrian100" depart="380.00">
        <walk edges="GowSt_1_3 TorPl_2_2 TorPl_2_1 BynPl_2_3"/>
    </person>
    <person id="pedestrian101" depart="382.00">
        <walk edges="HunSt_2_1 TorPl_2_4 TorPl_2_3"/>
    </person>
    <person id="pedestrian102" depart="382.00">
        <walk edges="TorPl_1_3 TorPl_1_4 TorPl_2_2 TorPl_2_1 MalSt_2_1"/>
    </person>
    <person id="pedestrian103" depart="385.00">
        <walk edges="GowSt_2_1 GowSt_2_2 GowSt_1_3"/>
    </person>
    <person id="pedestrian104" depart="385.00">
        <walk edges="TorPl_2_2 GowSt_1_2"/>
    </person>
    <person id="pedestrian105" depart="388.00">
        <walk edges="TorPl_1_5 GowSt_2_2"/>
    </person>
    <person id="pedestrian106" depart="389.00">
        <walk edges="BynPl_1_1 TorPl_1_5 TorPl_2_3 RidGa_1_1"/>
    </person>
    <person id="pedestrian107" depart="394.00">
        <walk edges="GorSq_2_2 BynPl_2_1 BynPl_2_2 BynPl_1_1 TorPl_1_5 TorPl_1_4 TorPl_1_3 TorPl_1_2"/>
    </person>
    <person id="pedestrian108" depart="408.00">
        <walk edges="HunSt_2_1 TorPl_1_2 TorPl_1_3 TorPl_1_4 GowSt_1_2 GowSt_1_1"/>
    </person>
    <person id="pedestrian109" depart="409.00">
        <walk edges="HunSt_2_2 TorPl_1_2 TorPl_1_3 TorPl_1_4 TorPl_1_5 BynPl_1_1"/>
    </person>
    <person id="pedestrian110" depart="414.00">
        <walk edges="GorSq_2_1 GorSq_1_2 GorSq_1_1"/>
    </person>
    <person id="pedestrian111" depart="417.00">
        <walk edges="HunSt_2_1 HunSt_1_1"/>
    </person>
    <person id="pedestrian112" depart="419.00">
        <walk edges="GorSq_1_1 BynPl_1_3 BynPl_2_1"/>
    </person>
    <person id="pedestrian113" depart="424.00">
        <walk edges="GorSq_1_2 BynPl_1_3 BynPl_1_2 BynPl_1_1 TorPl_1_5 GowSt_2_2"/>
    </person>
    <person id="pedestrian114" depart="425.00">
        <walk edges="TorPl_1_4 TorPl_1_5 BynPl_1_1 BynPl_1_2 BynPl_1_3"/>
    </person>
    <person id="pedestrian115" depart="427.00">
        <walk edges="TorPl_2_5 HunSt_2_1"/>
    </person>
    <person id="pedestrian116" depart="432.00">
        <walk edges="BynPl_2_1 BynPl_2_2 BynPl_1_1 TorPl_1_5 TorPl_1_4 TorPl_1_3 TorPl_1_2 TorPl_1_1"/>
    </person>
    <person id="pedestrian117" depart="433.00">
        <walk edges="RidGa_2_1 RidGa_1_1"/>
    </person>
    <person id="pedestrian118" depart="435.00">
        <walk edges="MalSt_2_1 TorPl_2_1 TorPl_2_2 TorPl_2_3 TorPl_2_4 HunSt_2_1"/>
    </person>
    <person id="pedestrian119" depart="436.00">
        <walk edges="TorPl_1_4 GowSt_2_3"/>
    </person>
    <person id="pedestrian120" depart="437.00">
        <walk edges="TorPl_1_5 GowSt_2_3"/>
    </person>
    <person id="pedestrian121" depart="440.00">
        <walk edges="HunSt_1_2 TorPl_2_4 TorPl_2_3 GowSt_2_3"/>
    </person>
    <person id="pedestrian122" depart="441.00">
        <walk edges="HunSt_2_1 TorPl_1_2 CheMe_1_1"/>
    </person>
    <person id="pedestrian123" depart="446.00">
        <walk edges="GorSq_2_3 BynPl_1_3 BynPl_1_2 BynPl_1_1 TorPl_1_5 TorPl_1_4 TorPl_1_3 TorPl_1_2"/>
    </person>
    <person id="pedestrian124" depart="447.00">
        <walk edges="GorSq_2_1 GorSq_2_2 BynPl_2_1 BynPl_2_2 BynPl_2_3 TorPl_2_1 TorPl_2_2 TorPl_2_3 TorPl_2_4 HunSt_1_2"/>
    </person>
    <person id="pedestrian125" depart="447.00">
        <walk edges="TorPl_2_4 TorPl_2_3 TorPl_1_4"/>
    </person>
    <person id="pedestrian126" depart="452.00">
        <walk edges="GowSt_2_1 GowSt_2_2 TorPl_2_3 TorPl_2_4 HunSt_2_1"/>
    </person>
    <person id="pedestrian127" depart="456.00">
        <walk edges="GowSt_1_2 TorPl_2_3 TorPl_2_4"/>
    </person>
    <person id="pedestrian128" depart="458.00">
        <walk edges="HunSt_1_1 TorPl_1_2 TorPl_1_3 TorPl_1_4 TorPl_1_5 BynPl_1_1 BynPl_1_2 BynPl_1_3 GorSq_2_3"/>
    </person>
    <person id="pedestrian129" depart="463.00">
        <walk edges="TorPl_1_2 TorPl_2_5"/>
    </person>
    <person id="pedestrian130" depart="464.00">
        <walk edges="BynPl_2_2 BynPl_2_3 TorPl_2_1 TorPl_2_2 TorPl_2_3 TorPl_2_4"/>
    </person>
    <person id="pedestrian131" depart="467.00">
        <walk edges="TorPl_1_2 TorPl_1_3 TorPl_1_4 TorPl_1_5 BynPl_1_1"/>
    </person>
    <person id="pedestrian132" depart="468.00">
        <walk edges="RidGa_1_1 TorPl_2_4 TorPl_1_2"/>
    </person>
    <person id="pedestrian133" depart="474.00">
        <walk edges="BynPl_1_1 TorPl_1_5"/>
    </person>
    <person id="pedestrian134" depart="480.00">
        <walk edges="TorPl_2_4 HunSt_1_2"/>
    </person>
    <person id="pedestrian135" depart="481.00">
        <walk edges="GorSq_1_1 BynPl_1_3 BynPl_2_2 BynPl_2_3 TorPl_2_1"/>
    </person>
    <person id="pedestrian136" depart="482.00">
        <walk edges="GorSq_1_1 BynPl_1_3 BynPl_1_2 BynPl_1_1 TorPl_1_5 TorPl_2_3 RidGa_2_1"/>
    </person>
    <person id="pedestrian137" depart="484.00">
        <walk edges="BynPl_2_3 TorPl_1_5 TorPl_1_4 TorPl_1_3 CheMe_2_1"/>
    </person>
    <person id="pedestrian138" depart="490.00">
        <walk edges="GorSq_2_1 GorSq_2_2 BynPl_2_1 BynPl_2_2 BynPl_1_1 TorPl_1_5 GowSt_2_3"/>
    </person>
    <person id="pedestrian139" depart="490.00">
        <walk edges="TorPl_2_1 TorPl_2_2 TorPl_1_4 TorPl_1_3 TorPl_1_2"/>
    </person>
    <person id="pedestrian140" depart="501.00">
        <walk edges="TorPl_2_5 TorPl_1_2 TorPl_1_3"/>
    </person>
    <person id="pedestrian141" depart="509.00">
        <walk edges="CheMe_1_1 TorPl_1_3 TorPl_1_4 GowSt_2_2"/>
    </person>
    <person id="pedestrian142" depart="510.00">
        <walk edges="HunSt_2_1 TorPl_2_4 TorPl_2_3 TorPl_2_2 TorPl_2_1 MalSt_1_1"/>
    </person>
    <person id="pedestrian143" depart="515.00">
        <walk edges="GorSq_2_1 GorSq_1_2 GorSq_1_1"/>
    </person>
    <person id="pedestrian144" depart="516.00">
        <walk edges="MalSt_1_1 BynPl_2_3"/>
    </person>
    <person id="pedestrian145" depart="526.00">
        <walk edges="TorPl_2_1 TorPl_2_2 TorPl_1_4 TorPl_1_3"/>
    </person>
    <person id="pedestrian146" depart="528.00">
        <walk edges="GorSq_1_1 BynPl_1_3 BynPl_1_2 BynPl_1_1"/>
    </person>
    <person id="pedestrian147" depart="529.00">
        <walk edges="TorPl_1_2 TorPl_1_3 TorPl_1_4 GowSt_1_2 GowSt_1_1"/>
    </person>
    <person id="pedestrian148" depart="529.00">
        <walk edges="MalPl_2_1 MalSt_2_1"/>
    </person>
    <person id="pedestrian149" depart="538.00">
        <walk edges="HunSt_1_2 TorPl_2_4 TorPl_2_3 GowSt_1_2 GowSt_1_1"/>
    </person>
    <person id="pedestrian150" depart="541.00">
        <walk edges="GowSt_1_3 TorPl_1_5 MalPl_1_1"/>
    </person>
    <person id="pedestrian151" depart="545.00">
        <walk edges="MalPl_2_1 BynPl_2_3"/>
    </person>
    <person id="pedestrian152" depart="545.00">
        <walk edges="TorPl_2_2 GowSt_2_2 GowSt_2_1"/>
    </person>
    <person id="pedestrian153" depart="548.00">
        <walk edges="GorSq_2_2 BynPl_2_1 BynPl_2_2 BynPl_2_3 MalSt_1_1"/>
    </person>
    <person id="pedestrian154" depart="549.00">
        <walk edges="MalPl_2_1 BynPl_1_1 BynPl_2_2 BynPl_2_1 GorSq_2_2 GorSq_2_1"/>
    </person>
    <person id="pedestrian155" depart="552.00">
        <walk edges="TorPl_2_3 TorPl_2_2 TorPl_2_1 BynPl_2_3"/>
    </person>
    <person id="pedestrian156" depart="559.00">
        <walk edges="GorSq_2_3 BynPl_1_3"/>
    </person>
    <person id="pedestrian157" depart="562.00">
        <walk edges="GowSt_1_1 GowSt_1_2"/>
    </person>
    <person id="pedestrian158" depart="562.00">
        <walk edges="MalPl_2_1 TorPl_1_5 TorPl_1_4"/>
    </person>
    <person id="pedestrian159" depart="567.00">
        <walk edges="HunSt_1_1 TorPl_1_2"/>
    </person>
    <person id="pedestrian160" depart="568.00">
        <walk edges="RidGa_1_1 TorPl_2_4 TorPl_2_5"/>
    </person>
    <person id="pedestrian161" depart="570.00">
        <walk edges="TorPl_1_5 TorPl_1_4 TorPl_1_3 TorPl_1_2 TorPl_2_5"/>
    </person>
    <person id="pedestrian162" depart="575.00">
        <walk edges="HunSt_1_1 TorPl_1_2 TorPl_1_3 TorPl_1_4 TorPl_1_5 BynPl_1_1 BynPl_2_2 BynPl_2_1 GorSq_2_2 GorSq_2_1"/>
    </person>
    <person id="pedestrian163" depart="579.00">
        <walk edges="TorPl_2_3 GowSt_1_2"/>
    </person>
    <person id="pedestrian164" depart="581.00">
        <walk edges="TorPl_1_2 TorPl_1_3 TorPl_1_4 TorPl_1_5"/>
    </person>
    <person id="pedestrian165" depart="584.00">
        <walk edges="GorSq_1_1 BynPl_1_3 BynPl_1_2 BynPl_1_1 TorPl_1_5 GowSt_1_2 GowSt_1_1"/>
    </person>
    <person id="pedestrian166" depart="584.00">
        <walk edges="CheMe_1_1 TorPl_1_2 TorPl_2_4 RidGa_2_1"/>
    </person>
    <person id="pedestrian167" depart="588.00">
        <walk edges="BynPl_1_3 BynPl_1_2 BynPl_1_1 TorPl_1_5 TorPl_2_3 RidGa_1_1"/>
    </person>
    <person id="pedestrian168" depart="588.00">
        <walk edges="GowSt_1_1 GowSt_1_2 TorPl_1_4 TorPl_1_3 TorPl_1_2"/>
    </person>
    <person id="pedestrian169" depart="593.00">
        <walk edges="RidGa_1_1 TorPl_2_3 TorPl_2_2 TorPl_2_1 MalSt_2_1"/>
    </person>
    <person id="pedestrian170" depart="599.00">
        <walk edges="GorSq_2_3 BynPl_1_3 BynPl_2_2"/>
    </person>
    <person id="pedestrian171" depart="603.00">
        <walk edges="MalPl_2_1 BynPl_1_1 BynPl_2_2"/>
    </person>
    <person id="pedestrian172" depart="610.00">
        <walk edges="BynPl_1_1 MalPl_2_1"/>
    </person>
    <person id="pedestrian173" depart="613.00">
        <walk edges="HunSt_1_1 TorPl_2_5"/>
    </person>
    <person id="pedestrian174" depart="613.00">
        <walk edges="MalPl_2_1 TorPl_1_5 TorPl_1_4 TorPl_1_3 CheMe_1_1"/>
    </person>
    <person id="pedestrian175" depart="614.00">
        <walk edges="MalPl_2_1 TorPl_1_5 TorPl_1_4 TorPl_1_3 CheMe_2_1"/>
    </person>
    <person id="pedestrian176" depart="616.00">
        <walk edges="BynPl_2_1 BynPl_2_2 BynPl_2_3 TorPl_2_1 TorPl_2_2 TorPl_2_3 TorPl_2_4 TorPl_2_5"/>
    </person>
    <person id="pedestrian177" depart="621.00">
        <walk edges="MalSt_2_1 TorPl_2_1 TorPl_2_2 TorPl_2_3 TorPl_2_4"/>
    </person>
    <person id="pedestrian178" depart="627.00">
        <walk edges="HunSt_2_1 TorPl_1_2 TorPl_1_3 TorPl_1_4 TorPl_1_5 BynPl_1_1 BynPl_1_2 BynPl_1_3 GorSq_2_3"/>
    </person>
    <person id="pedestrian179" depart="630.00">
        <walk edges="GorSq_2_3 BynPl_1_3 BynPl_2_2 BynPl_2_3 TorPl_2_1 TorPl_2_2"/>
    </person>
    <person id="pedestrian180" depart="630.00">
        <walk edges="HunSt_1_2 TorPl_2_4 TorPl_2_3 TorPl_2_2 TorPl_2_1 MalSt_1_1"/>
    </person>
    <person id="pedestrian181" depart="639.00">
        <walk edges="TorPl_1_5 BynPl_1_1 BynPl_2_2 BynPl_2_1 GorSq_2_2 GorSq_2_1"/>
    </person>
    <person id="pedestrian182" depart="639.00">
        <walk edges="TorPl_2_1 BynPl_2_3 BynPl_2_2 BynPl_1_3 GorSq_1_1"/>
    </person>
    <person id="pedestrian183" depart="643.00">
        <walk edges="GorSq_1_2 BynPl_1_3 BynPl_1_2 BynPl_1_1 TorPl_1_5 TorPl_2_3 TorPl_2_4 HunSt_1_2"/>
    </person>
    <person id="pedestrian184" depart="649.00">
        <walk edges="BynPl_2_1 BynPl_2_2 BynPl_1_1 TorPl_1_5 TorPl_1_4 TorPl_1_3 CheMe_1_1"/>
    </person>
    <person id="pedestrian185" depart="654.00">
        <walk edges="GorSq_2_2 GorSq_1_2 GorSq_2_3"/>
    </person>
    <person id="pedestrian186" depart="655.00">
        <walk edges="TorPl_1_4 GowSt_2_2"/>
    </person>
    <person id="pedestrian187" depart="661.00">
        <walk edges="GowSt_2_1 GowSt_2_2 TorPl_2_3 TorPl_2_4 HunSt_2_2"/>
    </person>
    <person id="pedestrian188" depart="672.00">
        <walk edges="GorSq_1_2"/>
    </person>
    <person id="pedestrian189" depart="677.00">
        <walk edges="GowSt_2_3 TorPl_1_5 BynPl_1_1 BynPl_1_2 BynPl_1_3 GorSq_1_2 GorSq_1_3"/>
    </person>
    <person id="pedestrian190" depart="679.00">
        <walk edges="GorSq_2_2 BynPl_2_1 BynPl_2_2 BynPl_1_1 TorPl_1_5 TorPl_1_4 TorPl_1_3 TorPl_1_2 HunSt_1_1"/>
    </person>
    <person id="pedestrian191" depart="686.00">
        <walk edges="HunSt_2_2 TorPl_1_2 TorPl_1_3 TorPl_1_4 TorPl_1_5 BynPl_1_1 BynPl_1_2 BynPl_1_3"/>
    </person>
    <person id="pedestrian192" depart="688.00">
        <walk edges="TorPl_2_5 TorPl_1_2 TorPl_1_3"/>
    </person>
    <person id="pedestrian193" depart="690.00">
        <walk edges="GowSt_2_1 GowSt_2_2 TorPl_1_5 MalPl_2_1"/>
    </person>
    <person id="pedestrian194" depart="692.00">
        <walk edges="GowSt_1_2 TorPl_1_4 TorPl_1_3 TorPl_1_2 TorPl_2_5"/>
    </person>
    <person id="pedestrian195" depart="696.00">
        <walk edges="TorPl_1_1 TorPl_1_2 TorPl_1_3 TorPl_1_4 GowSt_2_3"/>
    </person>
    <person id="pedestrian196" depart="698.00">
        <walk edges="GorSq_1_2 BynPl_1_3 BynPl_2_2 BynPl_2_3"/>
    </person>
    <person id="pedestrian197" depart="700.00">
        <walk edges="TorPl_1_4 TorPl_1_5 BynPl_1_1 BynPl_1_2 BynPl_1_3 GorSq_2_3"/>
    </person>
    <person id="pedestrian198" depart="702.00">
        <walk edges="MalPl_1_1 TorPl_1_5 TorPl_1_4 TorPl_1_3 CheMe_1_1"/>
    </person>
    <person id="pedestrian199" depart="702.00">
        <walk edges="TorPl_2_4 HunSt_1_2"/>
    </person>
    <person id="pedestrian200" depart="702.00">
        <walk edges="GowSt_2_3 TorPl_1_4"/>
    </person>
    <person id="pedestrian201" depart="711.00">
        <walk edges="TorPl_1_5 TorPl_1_4 TorPl_1_3 TorPl_1_2"/>
    </person>
    <person id="pedestrian202" depart="711.00">
        <walk edges="GowSt_1_2 TorPl_2_3 TorPl_2_4"/>
    </person>
    <person id="pedestrian203" depart="712.00">
        <walk edges="GorSq_2_3 BynPl_1_3 BynPl_1_2 BynPl_1_1 TorPl_1_5 TorPl_2_3"/>
    </person>
    <person id="pedestrian204" depart="729.00">
        <walk edges="RidGa_2_1 TorPl_2_3 GowSt_1_3"/>
    </person>
    <person id="pedestrian205" depart="729.00">
        <walk edges="BynPl_1_2 BynPl_1_1 TorPl_1_5 GowSt_2_3"/>
    </person>
    <person id="pedestrian206" depart="729.00">
        <walk edges="GowSt_2_2 TorPl_1_5 BynPl_1_1 BynPl_1_2 BynPl_1_3 GorSq_1_2 GorSq_1_3"/>
    </person>
    <person id="pedestrian207" depart="732.00">
        <walk edges="BynPl_2_2 BynPl_2_3 TorPl_2_1 TorPl_2_2 TorPl_2_3 TorPl_2_4 TorPl_2_5"/>
    </person>
    <person id="pedestrian208" depart="733.00">
        <walk edges="BynPl_2_3 TorPl_2_1 TorPl_2_2 GowSt_1_3"/>
    </person>
    <person id="pedestrian209" depart="740.00">
        <walk edges="MalPl_2_1 BynPl_1_1 BynPl_1_2 BynPl_1_3"/>
    </person>
    <person id="pedestrian210" depart="741.00">
        <walk edges="TorPl_2_2 TorPl_2_1 BynPl_2_3 BynPl_2_2 BynPl_2_1 GorSq_2_2 GorSq_2_1"/>
    </person>
    <person id="pedestrian211" depart="746.00">
        <walk edges="RidGa_2_1 TorPl_2_3 GowSt_1_3"/>
    </person>
    <person id="pedestrian212" depart="748.00">
        <walk edges="RidGa_2_1 TorPl_2_3 TorPl_1_5 MalPl_2_1"/>
    </person>
    <person id="pedestrian213" depart="748.00">
        <walk edges="TorPl_1_5 TorPl_2_3"/>
    </person>
    <person id="pedestrian214" depart="753.00">
        <walk edges="GorSq_2_1 GorSq_1_3"/>
    </person>
    <person id="pedestrian215" depart="755.00">
        <walk edges="MalSt_2_1 TorPl_2_1 TorPl_2_2 GowSt_1_3"/>
    </person>
    <person id="pedestrian216" depart="756.00">
        <walk edges="RidGa_1_1 TorPl_2_3 TorPl_1_5 BynPl_1_1 BynPl_1_2 BynPl_1_3 GorSq_1_2 GorSq_1_3"/>
    </person>
    <person id="pedestrian217" depart="760.00">