<?xml version="1.0" encoding="UTF-8"?>

<!-- generated on 2026-01-14 16:28:46.884886 by Eclipse SUMO randomTrips.py UNKNOWN
<configuration>
    <net-file value="../networks/demo/main.net.xml"/>
    <output-trip-file value="../routes/demo/train/551/pedestrian.trips.xml"/>
    <route-file value="../routes/demo/train/551/pedestrian.rou.xml"/>
    <pedestrians value="True"/>
    <prefix value="pedestrian"/>
    <seed value="551"/>
    <insertion-density value="200.0"/>
    <binomial value="100"/>
</configuration>
-->

<!-- generated on 2026-01-14T16:28:46.868787+00:00 by Eclipse SUMO duarouter 1.25.0
<duarouterConfiguration xmlns:xsi="http://www.w3.org/2001/XMLSchema-instance" xsi:noNamespaceSchemaLocation="http://sumo.dlr.de/xsd/duarouterConfiguration.xsd">

    <input>
        <net-file value="../networks/demo/main.net.xml"/>
        <route-files value="../routes/demo/train/551/pedestrian.trips.xml"/>
    </input>

    <output>
        <output-file value="../routes/demo/train/551/pedestrian.rou.xml"/>
        <alternatives-output value="NUL"/>
    </output>

    <time>
        <begin value="0"/>
        <end value="3600.0"/>
    </time>

    <report>
        <no-warnings value="true"/>
        <ignore-errors value="true"/>
        <no-step-log value="true"/>
    </report>

</duarouterConfiguration>
-->

<routes xmlns:xsi="http://www.w3.org/2001/XMLSchema-instance" xsi:noNamespaceSchemaLocation="http://sumo.dlr.de/xsd/routes_file.xsd">
    <person id="pedestrian0" depart="0.00">
        <walk edges="TorPl_1_3 GowSt_1_1"/>
    </person>
    <person id="pedestrian1" depart="9.00">
        <walk edges="GowSt_1_2 TorPl_2_2 TorPl_2_3"/>
    </person>
    <person id="pedestrian2" depart="14.00">
        <walk edges="MalSt_1_1 TorPl_2_1 TorPl_2_2 TorPl_2_3 TorPl_2_4"/>
    </person>
    <person id="pedestrian3" depart="20.00">
        <walk edges="HunSt_1_1 TorPl_1_2"/>
    </person>
    <person id="pedestrian4" depart="21.00">
        <walk edges="TorPl_1_1 TorPl_1_2 TorPl_1_3 TorPl_1_4 BynPl_1_1 BynPl_2_2 BynPl_2_1 GorSq_2_2 GorSq_2_1"/>
    </person>
    <person id="pedestrian5" depart="22.00">
        <walk edges="TorPl_2_4 TorPl_1_2 TorPl_1_3 TorPl_1_4 BynPl_1_1 BynPl_1_2"/>
    </person>
    <person id="pedestrian6" depart="22.00">
        <walk edges="MalPl_2_1 TorPl_1_4 TorPl_1_3 TorPl_1_2 TorPl_1_1"/>
    </person>
    <person id="pedestrian7" depart="27.00">
        <walk edges="RidGa_1_1 TorPl_2_2 TorPl_1_4 BynPl_1_1"/>
    </person>
    <person id="pedestrian8" depart="30.00">
        <walk edges="TorPl_1_1 TorPl_1_2 TorPl_1_3 TorPl_1_4 BynPl_1_1 BynPl_1_2 BynPl_1_3 GorSq_1_1"/>
    </person>
    <person id="pedestrian9" depart="34.00">
        <walk edges="BynPl_1_1 BynPl_1_2 BynPl_1_3 GorSq_2_3"/>
    </person>
    <person id="pedestrian10" depart="36.00">
        <walk edges="GorSq_1_2 BynPl_1_3 BynPl_1_2 BynPl_1_1 TorPl_1_4 TorPl_1_3 TorPl_1_2 HunSt_1_1"/>
    </person>
    <person id="pedestrian11" depart="38.00">
        <walk edges="GorSq_1_3 GorSq_1_2 BynPl_1_3 BynPl_1_2 BynPl_1_1 TorPl_1_4 GowSt_2_1"/>
    </person>
    <person id="pedestrian12" depart="38.00">
        <walk edges="RidGa_2_1 TorPl_2_2 TorPl_2_1 BynPl_2_3 BynPl_2_2 BynPl_2_1 GorSq_2_2"/>
    </person>
    <person id="pedestrian13" depart="49.00">
        <walk edges="TorPl_2_4 HunSt_1_1"/>
    </person>
    <person id="pedestrian14" depart="51.00">
        <walk edges="HunSt_2_2 TorPl_2_3"/>
    </person>
    <person id="pedestrian15" depart="54.00">
        <walk edges="GorSq_2_2 BynPl_2_1 BynPl_2_2 BynPl_1_1 TorPl_1_4 TorPl_1_3 TorPl_1_2"/>
    </person>
    <person id="pedestrian16" depart="58.00">
        <walk edges="GorSq_2_1 GorSq_2_2 BynPl_2_1 BynPl_2_2 BynPl_2_3 MalSt_1_1"/>
    </person>
    <person id="pedestrian17" depart="58.00">
        <walk edges="TorPl_2_3 HunSt_2_2"/>
    </person>
    <person id="pedestrian18" depart="59.00">
        <walk edges="GorSq_2_3 BynPl_1_3 BynPl_1_2 BynPl_1_1 TorPl_1_4 TorPl_1_3 TorPl_1_2 HunSt_2_2"/>
    </person>
    <person id="pedestrian19" depart="60.00">
        <walk edges="HunSt_2_2 TorPl_1_1"/>
    </person>
    <person id="pedestrian20" depart="65.00">
        <walk edges="HunSt_2_2 TorPl_1_2 TorPl_1_3 TorPl_1_4 BynPl_1_1 BynPl_1_2 BynPl_1_3 GorSq_1_1"/>
    </person>
    <person id="pedestrian21" depart="71.00">
        <walk edges="GorSq_1_2 BynPl_1_3 BynPl_2_2 BynPl_2_3 MalSt_2_1"/>
    </person>
    <person id="pedestrian22" depart="71.00">
        <walk edges="GorSq_2_3 BynPl_1_3 BynPl_1_2 BynPl_1_1 TorPl_1_4 TorPl_2_2 RidGa_1_1"/>
    </person>
    <person id="pedestrian23" depart="72.00">
        <walk edges="MalSt_2_1 TorPl_2_1 TorPl_2_2 TorPl_2_3 HunSt_2_2"/>
    </person>
    <person id="pedestrian24" depart="72.00">
        <walk edges="RidGa_2_1 TorPl_2_3"/>
    </person>
    <person id="pedestrian25" depart="81.00">
        <walk edges="GowSt_1_1 TorPl_2_1 MalSt_2_1"/>
    </person>
    <person id="pedestrian26" depart="90.00">
        <walk edges="BynPl_2_1 BynPl_2_2 BynPl_1_1 TorPl_1_4 GowSt_2_2"/>
    </person>
    <person id="pedestrian27" depart="98.00">
        <walk edges="MalPl_2_1"/>
    </person>
    <person id="pedestrian28" depart="100.00">
        <walk edges="BynPl_2_2 BynPl_2_3"/>
    </person>
    <person id="pedestrian29" depart="102.00">
        <walk edges="BynPl_2_2 BynPl_1_1 TorPl_1_4 TorPl_1_3 CheMe_2_1"/>
    </person>
    <person id="pedestrian30" depart="107.00">
        <walk edges="MalSt_1_1"/>
    </person>
    <person id="pedestrian31" depart="114.00">
        <walk edges="GorSq_1_1 BynPl_1_3 BynPl_1_2 BynPl_1_1 TorPl_1_4 TorPl_2_2 RidGa_2_1"/>
    </person>
    <person id="pedestrian32" depart="115.00">
        <walk edges="MalSt_1_1 TorPl_1_4 TorPl_1_3 CheMe_2_1"/>
    </person>
    <person id="pedestrian33" depart="119.00">
        <walk edges="TorPl_1_1 TorPl_1_2 TorPl_1_3 TorPl_1_4 BynPl_1_1 BynPl_1_2 BynPl_1_3 GorSq_2_3"/>
    </person>
    <person id="pedestrian34" depart="120.00">
        <walk edges="MalSt_1_1 BynPl_2_3"/>
    </person>
    <person id="pedestrian35" depart="126.00">
        <walk edges="HunSt_1_2 TorPl_2_3 TorPl_2_2 GowSt_1_1"/>
    </person>
    <person id="pedestrian36" depart="126.00">
        <walk edges="BynPl_1_2 BynPl_1_1 TorPl_1_4 TorPl_1_3 CheMe_2_1"/>
    </person>
    <person id="pedestrian37" depart="128.00">
        <walk edges="MalPl_1_1 TorPl_1_4"/>
    </person>
    <person id="pedestrian38" depart="128.00">
        <walk edges="CheMe_1_1 TorPl_1_3 TorPl_1_4 BynPl_1_1 BynPl_2_2"/>
    </person>
    <person id="pedestrian39" depart="134.00">
        <walk edges="BynPl_1_3 BynPl_1_2 BynPl_1_1"/>
    </person>
    <person id="pedestrian40" depart="145.00">
        <walk edges="TorPl_2_2 TorPl_1_4 MalPl_2_1"/>
    </person>
    <person id="pedestrian41" depart="150.00">
        <walk edges="BynPl_1_3 BynPl_1_2 BynPl_1_1 MalPl_1_1"/>
    </person>
    <person id="pedestrian42" depart="153.00">
        <walk edges="BynPl_1_3 BynPl_1_2 BynPl_1_1 TorPl_1_4 TorPl_2_2 RidGa_1_1"/>
    </person>
    <person id="pedestrian43" depart="156.00">
        <walk edges="CheMe_2_1 TorPl_1_2 HunSt_2_2"/>
    </person>
    <person id="pedestrian44" depart="161.00">
        <walk edges="RidGa_1_1 TorPl_2_2 GowSt_1_1"/>
    </person>
    <person id="pedestrian45" depart="167.00">
        <walk edges="TorPl_1_1 TorPl_1_2 TorPl_1_3 TorPl_1_4"/>
    </person>
    <person id="pedestrian46" depart="173.00">
        <walk edges="MalPl_1_1 TorPl_1_4 TorPl_2_2 RidGa_2_1"/>
    </person>
    <person id="pedestrian47" depart="176.00">
        <walk edges="BynPl_2_3 TorPl_1_4 TorPl_1_3 TorPl_1_2"/>
    </person>
    <person id="pedestrian48" depart="176.00">
        <walk edges="GowSt_2_1 TorPl_2_2 TorPl_2_3 HunSt_2_1"/>
    </person>
    <person id="pedestrian49" depart="177.00">
        <walk edges="TorPl_1_4 GowSt_1_2"/>
    </person>
    <person id="pedestrian50" depart="178.00">
        <walk edges="HunSt_2_2 TorPl_1_2 TorPl_1_3 GowSt_2_2"/>
    </person>
    <person id="pedestrian51" depart="182.00">
        <walk edges="GowSt_1_2 GowSt_2_2"/>
    </person>
    <person id="pedestrian52" depart="184.00">
        <walk edges="TorPl_2_1 MalSt_2_1"/>
    </person>
    <person id="pedestrian53" depart="186.00">
        <walk edges="BynPl_2_3 BynPl_2_2"/>
    </person>
    <person id="pedestrian54" depart="189.00">
        <walk edges="GorSq_1_1 BynPl_1_3 BynPl_1_2 BynPl_1_1 TorPl_1_4 TorPl_1_3 TorPl_1_2 HunSt_1_1"/>
    </person>
    <person id="pedestrian55" depart="193.00">
        <walk edges="GorSq_2_3 BynPl_1_3 BynPl_1_2 BynPl_1_1 TorPl_1_4 TorPl_2_2"/>
    </person>
    <person id="pedestrian56" depart="199.00">
        <walk edges="GorSq_2_3 BynPl_1_3 BynPl_1_2 BynPl_1_1 TorPl_1_4"/>
    </person>
    <person id="pedestrian57" depart="201.00">
        <walk edges="BynPl_2_1 BynPl_2_2 BynPl_2_3 MalSt_2_1"/>
    </person>
    <person id="pedestrian58" depart="204.00">
        <walk edges="GorSq_1_3 GorSq_1_2 BynPl_1_3 BynPl_1_2 BynPl_1_1 TorPl_1_4 TorPl_2_2 TorPl_2_3 HunSt_1_2"/>
    </person>
    <person id="pedestrian59" depart="204.00">
        <walk edges="GorSq_2_2 BynPl_2_1 BynPl_1_2"/>
    </person>
    <person id="pedestrian60" depart="209.00">
        <walk edges="MalPl_2_1 MalSt_1_1"/>
    </person>
    <person id="pedestrian61" depart="213.00">
        <walk edges="BynPl_1_3 BynPl_2_2 BynPl_2_3 MalSt_1_1"/>
    </person>
    <person id="pedestrian62" depart="216.00">
        <walk edges="HunSt_1_1 TorPl_1_2 TorPl_1_3 TorPl_1_4 MalPl_1_1"/>
    </person>
    <person id="pedestrian63" depart="217.00">
        <walk edges="CheMe_1_1 TorPl_1_3 TorPl_1_4 BynPl_1_1 BynPl_2_2"/>
    </person>
    <person id="pedestrian64" depart="222.00">
        <walk edges="HunSt_2_1 HunSt_1_2"/>
    </person>
    <person id="pedestrian65" depart="223.00">
        <walk edges="TorPl_2_4 TorPl_1_2 TorPl_1_3 TorPl_1_4 BynPl_1_1 BynPl_1_2 BynPl_1_3 GorSq_1_1"/>
    </person>
    <person id="pedestrian66" depart="225.00">
        <walk edges="HunSt_1_2 TorPl_2_3 TorPl_2_2 GowSt_1_1"/>
    </person>
    <person id="pedestrian67" depart="226.00">
        <walk edges="GorSq_2_1 GorSq_2_2 BynPl_2_1 BynPl_2_2 BynPl_2_3 MalSt_1_1"/>
    </person>
    <person id="pedestrian68" depart="232.00">
        <walk edges="BynPl_1_3 BynPl_1_2 BynPl_1_1 TorPl_1_4 TorPl_2_2 RidGa_1_1"/>
    </person>
    <person id="pedestrian69" depart="239.00">
        <walk edges="GorSq_1_2 BynPl_1_3 BynPl_1_2 BynPl_1_1 TorPl_1_4 TorPl_1_3 CheMe_2_1"/>
    </person>
    <person id="pedestrian70" depart="239.00">
        <walk edges="GowSt_2_1 TorPl_1_4 BynPl_1_1 BynPl_1_2 BynPl_1_3 GorSq_2_3"/>
    </person>
    <person id="pedestrian71" depart="242.00">
        <walk edges="MalPl_1_1 TorPl_1_4 TorPl_2_2 RidGa_2_1"/>
    </person>
    <person id="pedestrian72" depart="254.00">
        <walk edges="TorPl_2_2 TorPl_1_4 BynPl_1_1 BynPl_1_2 BynPl_1_3 GorSq_1_2 GorSq_1_3"/>
    </person>
    <person id="pedestrian73" depart="255.00">
        <walk edges="TorPl_2_4 TorPl_1_2 TorPl_1_3 TorPl_1_4 BynPl_1_1 BynPl_1_2 BynPl_1_3 GorSq_1_1"/>
    </person>
    <person id="pedestrian74" depart="256.00">
        <walk edges="HunSt_1_2 TorPl_2_3 TorPl_2_2 TorPl_2_1 MalSt_2_1"/>
    </person>
    <person id="pedestrian75" depart="261.00">
        <walk edges="GorSq_1_2 GorSq_2_2"/>
    </person>
    <person id="pedestrian76" depart="263.00">
        <walk edges="TorPl_1_2 TorPl_1_3 TorPl_1_4 BynPl_1_1 BynPl_2_2 BynPl_2_1 GorSq_2_2 GorSq_2_1"/>
    </person>
    <person id="pedestrian77" depart="266.00">
        <walk edges="HunSt_1_1 TorPl_2_3 TorPl_2_2 GowSt_1_2"/>
    </person>
    <person id="pedestrian78" depart="271.00">
        <walk edges="GowSt_1_2 TorPl_1_4 BynPl_1_1 BynPl_1_2 BynPl_1_3 GorSq_1_2 GorSq_1_3"/>
    </person>
    <person id="pedestrian79" depart="285.00">
        <walk edges="TorPl_1_3 TorPl_2_1"/>
    </person>
    <person id="pedestrian80" depart="287.00">
        <walk edges="MalPl_1_1 BynPl_1_1 BynPl_1_2 BynPl_1_3 GorSq_1_2"/>
    </person>
    <person id="pedestrian81" depart="290.00">
        <walk edges="MalPl_2_1 TorPl_1_4 GowSt_2_2"/>
    </person>
    <person id="pedestrian82" depart="291.00">
        <walk edges="TorPl_1_4 TorPl_1_3 TorPl_1_2 HunSt_1_1"/>
    </person>
    <person id="pedestrian83" depart="294.00">
        <walk edges="BynPl_1_1 BynPl_2_2 BynPl_2_1 GorSq_2_2 GorSq_2_1"/>
    </person>
    <person id="pedestrian84" depart="294.00">
        <walk edges="TorPl_1_4 TorPl_2_2 RidGa_2_1"/>
    </person>
    <person id="pedestrian85" depart="298.00">
        <walk edges="CheMe_2_1 TorPl_1_3 GowSt_1_1"/>
    </person>
    <person id="pedestrian86" depart="298.00">
        <walk edges="GowSt_1_1 TorPl_1_4 MalSt_1_1"/>
    </person>
    <person id="pedestrian87" depart="305.00">
        <walk edges="GowSt_1_1 TorPl_2_2 TorPl_2_3 HunSt_1_2"/>
    </person>
    <person id="pedestrian88" depart="308.00">
        <walk edges="BynPl_1_3 BynPl_1_2 BynPl_1_1 MalPl_2_1"/>
    </person>
    <person id="pedestrian89" depart="309.00">
        <walk edges="TorPl_1_4 MalPl_2_1"/>
    </person>
    <person id="pedestrian90" depart="316.00">
        <walk edges="GorSq_1_2 BynPl_1_3 BynPl_1_2"/>
    </person>
    <person id="pedestrian91" depart="324.00">
        <walk edges="GorSq_2_2 BynPl_2_1 BynPl_2_2 BynPl_1_1 TorPl_1_4 TorPl_1_3 TorPl_1_2 HunSt_1_1"/>
    </person>
    <person id="pedestrian92" depart="325.00">
        <walk edges="GorSq_1_3 GorSq_1_2 BynPl_1_3 BynPl_1_2 BynPl_1_1 TorPl_1_4 TorPl_2_2 TorPl_2_3"/>
    </person>
    <person id="pedestrian93" depart="326.00">
        <walk edges="TorPl_1_4 GowSt_1_2"/>
    </person>
    <person id="pedestrian94" depart="333.00">
        <walk edges="GorSq_2_1 GorSq_1_2 GorSq_1_1"/>
    </person>
    <person id="pedestrian95" depart="335.00">
        <walk edges="GorSq_2_1 GorSq_1_2 BynPl_1_3 BynPl_1_2"/>
    </person>
    <person id="pedestrian96" depart="335.00">
        <walk edges="GorSq_2_2 BynPl_2_1 BynPl_2_2 BynPl_2_3 TorPl_2_1 TorPl_2_2 RidGa_2_1"/>
    </person>
    <person id="pedestrian97" depart="342.00">
        <walk edges="CheMe_1_1 TorPl_1_3 TorPl_1_4 BynPl_1_1 BynPl_1_2 BynPl_1_3 GorSq_2_3"/>
    </person>
    <person id="pedestrian98" depart="345.00">
        <walk edges="TorPl_1_2 TorPl_1_3 TorPl_1_4 MalPl_2_1"/>
    </person>
    <person id="pedestrian99" depart="347.00">
        <walk edges="GorSq_2_3 BynPl_1_3 BynPl_1_2 BynPl_1_1 TorPl_1_4 TorPl_1_3"/>
    </person>
    <person id="pedestrian100" depart="352.00">
        <walk edges="GorSq_2_1 GorSq_2_2 BynPl_2_1 BynPl_2_2 BynPl_1_1 TorPl_1_4 TorPl_1_3 CheMe_2_1"/>
    </person>
    <person id="pedestrian101" depart="353.00">
        <walk edges="MalSt_2_1 TorPl_2_1 TorPl_2_2 TorPl_2_3 HunSt_1_2"/>
    </person>
    <person id="pedestrian102" depart="367.00">
        <walk edges="GorSq_2_3 GorSq_1_2 GorSq_1_3"/>
    </person>
    <person id="pedestrian103" depart="376.00">
        <walk edges="TorPl_1_4 BynPl_2_3"/>
    </person>
    <person id="pedestrian104" depart="395.00">
        <walk edges="GowSt_2_2 TorPl_1_3 CheMe_2_1"/>
    </person>
    <person id="pedestrian105" depart="399.00">
        <walk edges="TorPl_1_1 TorPl_2_3 RidGa_2_1"/>
    </person>
    <person id="pedestrian106" depart="400.00">
        <walk edges="GorSq_1_2 BynPl_1_3 BynPl_2_2 BynPl_2_3 MalSt_1_1"/>
    </person>
    <person id="pedestrian107" depart="401.00">
        <walk edges="TorPl_2_4 TorPl_1_2 TorPl_1_3 TorPl_1_4 BynPl_1_1"/>
    </person>
    <person id="pedestrian108" depart="403.00">
        <walk edges="GorSq_2_3 BynPl_1_3 BynPl_2_2 BynPl_2_3 MalSt_1_1"/>
    </person>
    <person id="pedestrian109" depart="408.00">
        <walk edges="TorPl_2_4 HunSt_1_1"/>
    </person>
    <person id="pedestrian110" depart="410.00">
        <walk edges="GorSq_1_1 BynPl_1_3 BynPl_1_2"/>
    </person>
    <person id="pedestrian111" depart="410.00">
        <walk edges="RidGa_1_1 TorPl_2_2 TorPl_1_4 BynPl_1_1 BynPl_1_2 BynPl_1_3 GorSq_2_3"/>
    </person>
    <person id="pedestrian112" depart="411.00">
        <walk edges="HunSt_2_2 HunSt_1_2"/>
    </person>
    <person id="pedestrian113" depart="411.00">
        <walk edges="MalSt_2_1 TorPl_2_1 TorPl_2_2 RidGa_1_1"/>
    </person>
    <person id="pedestrian114" depart="413.00">
        <walk edges="GorSq_1_3 GorSq_2_2"/>
    </person>
    <person id="pedestrian115" depart="414.00">
        <walk edges="RidGa_1_1 TorPl_2_3 TorPl_1_1"/>
    </person>
    <person id="pedestrian116" depart="417.00">
        <walk edges="HunSt_1_1 HunSt_1_2"/>
    </person>
    <person id="pedestrian117" depart="418.00">
        <walk edges="BynPl_1_3 BynPl_1_2 BynPl_1_1"/>
    </person>
    <person id="pedestrian118" depart="427.00">
        <walk edges="RidGa_2_1 TorPl_2_2 TorPl_1_4 BynPl_1_1 BynPl_1_2 BynPl_1_3 GorSq_1_1"/>
    </person>
    <person id="pedestrian119" depart="427.00">
        <walk edges="TorPl_2_3 RidGa_2_1"/>
    </person>
    <person id="pedestrian120" depart="428.00">
        <walk edges="TorPl_1_2 HunSt_1_2"/>
    </person>
    <person id="pedestrian121" depart="430.00">
        <walk edges="TorPl_2_2 RidGa_2_1"/>
    </person>
    <person id="pedestrian122" depart="442.00">
        <walk edges="GorSq_1_1 BynPl_1_3"/>
    </person>
    <person id="pedestrian123" depart="443.00">
        <walk edges="GorSq_1_2 BynPl_1_3 BynPl_1_2 BynPl_1_1 TorPl_1_4 TorPl_1_3"/>
    </person>
    <person id="pedestrian124" depart="444.00">
        <walk edges="GowSt_2_2 TorPl_1_3 TorPl_1_2 TorPl_2_4"/>
    </person>
    <person id="pedestrian125" depart="448.00">
        <walk edges="RidGa_1_1 TorPl_2_2 TorPl_2_1 BynPl_2_3"/>
    </person>
    <person id="pedestrian126" depart="453.00">
        <walk edges="MalSt_1_1 TorPl_2_1 TorPl_2_2"/>
    </person>
    <person id="pedestrian127" depart="468.00">
        <walk edges="BynPl_2_1 BynPl_2_2 BynPl_1_1 TorPl_1_4 TorPl_1_3 TorPl_1_2 HunSt_1_1"/>
    </person>
    <person id="pedestrian128" depart="474.00">
        <walk edges="MalSt_2_1 BynPl_2_3 BynPl_2_2 BynPl_1_3 GorSq_2_3"/>
    </person>
    <person id="pedestrian129" depart="476.00">
        <walk edges="TorPl_2_2 TorPl_2_1"/>
    </person>
    <person id="pedestrian130" depart="476.00">
        <walk edges="GowSt_1_2 TorPl_2_1 MalSt_2_1"/>
    </person>
    <person id="pedestrian131" depart="477.00">
        <walk edges="TorPl_2_3 RidGa_1_1"/>
    </person>
    <person id="pedestrian132" depart="480.00">
        <walk edges="BynPl_2_3 BynPl_2_2 BynPl_1_3 GorSq_1_1"/>
    </person>
    <person id="pedestrian133" depart="480.00">
        <walk edges="BynPl_2_3 BynPl_2_2 BynPl_1_3 GorSq_1_2 GorSq_1_3"/>
    </person>
    <person id="pedestrian134" depart="484.00">
        <walk edges="MalSt_2_1 TorPl_2_1 TorPl_1_3"/>
    </person>
    <person id="pedestrian135" depart="485.00">
        <walk edges="GorSq_1_1 BynPl_1_3 BynPl_1_2 BynPl_1_1 TorPl_1_4 TorPl_2_2 TorPl_2_3 HunSt_1_2"/>
    </person>
    <person id="pedestrian136" depart="488.00">
        <walk edges="BynPl_2_2 BynPl_2_3 TorPl_2_1 TorPl_2_2 RidGa_2_1"/>
    </person>
    <person id="pedestrian137" depart="490.00">
        <walk edges="TorPl_1_4 TorPl_2_2 RidGa_1_1"/>
    </person>
    <person id="pedestrian138" depart="493.00">
        <walk edges="HunSt_2_1 TorPl_1_2 CheMe_1_1"/>
    </person>
    <person id="pedestrian139" depart="495.00">
        <walk edges="BynPl_1_1 TorPl_1_4 TorPl_1_3 TorPl_1_2 TorPl_1_1"/>
    </person>
    <person id="pedestrian140" depart="507.00">
        <walk edges="GowSt_1_2 TorPl_1_4 BynPl_1_1 BynPl_1_2 BynPl_1_3 GorSq_2_3"/>
    </person>
    <person id="pedestrian141" depart="511.00">
        <walk edges="TorPl_1_2 TorPl_1_3 TorPl_1_4"/>
    </person>
    <person id="pedestrian142" depart="515.00">
        <walk edges="TorPl_1_4 BynPl_1_1 BynPl_1_2 BynPl_1_3 GorSq_2_3"/>
    </person>
    <person id="pedestrian143" depart="516.00">
        <walk edges="BynPl_2_1"/>
    </person>
    <person id="pedestrian144" depart="521.00">
        <walk edges="BynPl_1_3 BynPl_1_2 BynPl_1_1 TorPl_1_4 TorPl_1_3"/>
    </person>
    <person id="pedestrian145" depart="526.00">
        <walk edges="GowSt_2_2 TorPl_2_2 TorPl_2_3 HunSt_1_2"/>
    </person>
    <person id="pedestrian146" depart="527.00">
        <walk edges="MalPl_1_1 TorPl_2_1"/>
    </person>
    <person id="pedestrian147" depart="530.00">
        <walk edges="GowSt_2_2 TorPl_2_2 RidGa_1_1"/>
    </person>
    <person id="pedestrian148" depart="536.00">
        <walk edges="BynPl_2_2 BynPl_2_3 MalSt_1_1"/>
    </person>
    <person id="pedestrian149" depart="536.00">
        <walk edges="MalPl_1_1 TorPl_1_4 GowSt_2_2"/>
    </person>
    <person id="pedestrian150" depart="546.00">
        <walk edges="BynPl_1_3 BynPl_1_2 BynPl_1_1 TorPl_1_4 GowSt_1_1"/>
    </person>
    <person id="pedestrian151" depart="547.00">
        <walk edges="TorPl_1_3 GowSt_2_2"/>
    </person>
    <person id="pedestrian152" depart="549.00">
        <walk edges="RidGa_2_1 TorPl_2_2 TorPl_1_4 BynPl_1_1"/>
    </person>
    <person id="pedestrian153" depart="552.00">
        <walk edges="TorPl_2_1 TorPl_2_2 TorPl_2_3 HunSt_2_1"/>
    </person>
    <person id="pedestrian154" depart="555.00">
        <walk edges="HunSt_2_1 TorPl_2_3 TorPl_2_2 GowSt_1_2"/>
    </person>
    <person id="pedestrian155" depart="556.00">
        <walk edges="MalSt_1_1 MalSt_2_1"/>
    </person>
    <person id="pedestrian156" depart="562.00">
        <walk edges="MalPl_2_1 TorPl_1_4 TorPl_1_3 TorPl_1_2 TorPl_2_4"/>
    </person>
    <person id="pedestrian157" depart="569.00">
        <walk edges="TorPl_2_2 TorPl_2_1 BynPl_2_3"/>
    </person>
    <person id="pedestrian158" depart="570.00">
        <walk edges="TorPl_2_3 TorPl_2_2 TorPl_1_4 BynPl_1_1 BynPl_1_2 BynPl_1_3 GorSq_1_2"/>
    </person>
    <person id="pedestrian159" depart="571.00">
        <walk edges="TorPl_1_3 TorPl_1_2 TorPl_2_3"/>
    </person>
    <person id="pedestrian160" depart="571.00">
        <walk edges="MalSt_2_1 TorPl_2_1"/>
    </person>
    <person id="pedestrian161" depart="574.00">
        <walk edges="GorSq_1_1 BynPl_1_3 BynPl_1_2 BynPl_1_1 TorPl_1_4 TorPl_2_2 TorPl_2_3 HunSt_1_2"/>
    </person>
    <person id="pedestrian162" depart="575.00">
        <walk edges="MalPl_2_1 BynPl_1_1 BynPl_1_2 BynPl_1_3 GorSq_1_2 GorSq_1_3"/>
    </person>
    <person id="pedestrian163" depart="577.00">
        <walk edges="TorPl_2_3 TorPl_2_2 TorPl_2_1 MalSt_2_1"/>
    </person>
    <person id="pedestrian164" depart="578.00">
        <walk edges="GowSt_1_2 TorPl_2_2 TorPl_2_3 TorPl_1_1"/>
    </person>
    <person id="pedestrian165" depart="579.00">
        <walk edges="TorPl_1_3 TorPl_1_4 BynPl_1_1 BynPl_2_2"/>
    </person>
    <person id="pedestrian166" depart="581.00">
        <walk edges="BynPl_1_1 MalPl_2_1"/>
    </person>
    <person id="pedestrian167" depart="597.00">
        <walk edges="RidGa_1_1 TorPl_2_3 TorPl_2_4"/>
    </person>
    <person id="pedestrian168" depart="605.00">
        <walk edges="BynPl_2_2 BynPl_2_3 TorPl_2_1 GowSt_2_1"/>
    </person>
    <person id="pedestrian169" depart="611.00">
        <walk edges="GowSt_2_1 TorPl_2_2 TorPl_2_3 HunSt_2_2"/>
    </person>
    <person id="pedestrian170" depart="611.00">
        <walk edges="HunSt_1_2 TorPl_2_3"/>
    </person>
    <person id="pedestrian171" depart="613.00">
        <walk edges="TorPl_1_2 TorPl_1_3 TorPl_1_4 MalPl_1_1"/>
    </person>
    <person id="pedestrian172" depart="613.00">
        <walk edges="HunSt_1_1 TorPl_2_3 RidGa_2_1"/>
    </person>
    <person id="pedestrian173" depart="614.00">
        <walk edges="MalPl_1_1 TorPl_1_4 GowSt_2_2"/>
    </person>
    <person id="pedestrian174" depart="620.00">
        <walk edges="BynPl_1_2 BynPl_1_1 TorPl_1_4 TorPl_1_3 TorPl_1_2 TorPl_2_4"/>
    </person>
    <person id="pedestrian175" depart="621.00">
        <walk edges="BynPl_2_2 BynPl_2_3 TorPl_2_1 GowSt_1_2"/>
    </person>
    <person id="pedestrian176" depart="622.00">
        <walk edges="HunSt_2_2 TorPl_1_2 TorPl_1_3 TorPl_1_4 BynPl_1_1 BynPl_1_2 BynPl_1_3 GorSq_1_2"/>
    </person>
    <person id="pedestrian177" depart="626.00">
        <walk edges="TorPl_1_4 BynPl_1_1 BynPl_1_2 BynPl_1_3 GorSq_1_2 GorSq_1_3"/>
    </person>
    <person id="pedestrian178" depart="631.00">
        <walk edges="TorPl_1_4 BynPl_1_1 BynPl_2_2 BynPl_2_1"/>
    </person>
    <person id="pedestrian179" depart="633.00">
        <walk edges="GorSq_2_1 GorSq_2_2 BynPl_2_1 BynPl_2_2 BynPl_2_3 TorPl_2_1 GowSt_1_2"/>
    </person>
    <person id="pedestrian180" depart="634.00">
        <walk edges="GowSt_1_2 TorPl_2_2 RidGa_2_1"/>
    </person>
    <person id="pedestrian181" depart="636.00">
        <walk edges="GorSq_1_2 BynPl_1_3"/>
    </person>
    <person id="pedestrian182" depart="637.00">
        <walk edges="GowSt_2_2 TorPl_1_3 TorPl_1_2 HunSt_2_2"/>
    </person>
    <person id="pedestrian183" depart="638.00">
        <walk edges="MalSt_2_1 TorPl_2_1 TorPl_2_2"/>
    </person>
    <person id="pedestrian184" depart="643.00">
        <walk edges="TorPl_1_1 TorPl_2_3 RidGa_1_1"/>
    </person>
    <person id="pedestrian185" depart="654.00">
        <walk edges="GorSq_2_3 BynPl_1_3 BynPl_1_2 BynPl_1_1 TorPl_1_4 GowSt_1_2"/>
    </person>
    <person id="pedestrian186" depart="656.00">
        <walk edges="GowSt_2_1 TorPl_2_2 TorPl_2_3"/>
    </person>
    <person id="pedestrian187" depart="657.00">
        <walk edges="GorSq_1_1 BynPl_1_3 BynPl_1_2 BynPl_1_1 TorPl_1_4 TorPl_1_3 TorPl_1_2"/>
    </person>
    <person id="pedestrian188" depart="657.00">
        <walk edges="TorPl_2_1 MalPl_2_1"/>
    </person>
    <person id="pedestrian189" depart="659.00">
        <walk edges="GowSt_2_2 GowSt_2_1"/>
    </person>
    <person id="pedestrian190" depart="663.00">
        <walk edges="GorSq_2_3 BynPl_1_3 BynPl_1_2"/>
    </person>
    <person id="pedestrian191" depart="667.00">
        <walk edges="GorSq_2_3 BynPl_1_3 BynPl_1_2 BynPl_1_1 TorPl_1_4 TorPl_1_3"/>
    </person>
    <person id="pedestrian192" depart="667.00">
        <walk edges="RidGa_2_1 TorPl_2_3 HunSt_2_2"/>
    </person>
    <person id="pedestrian193" depart="669.00">
        <walk edges="HunSt_2_1 TorPl_2_3"/>
    </person>
    <person id="pedestrian194" depart="670.00">
        <walk edges="GowSt_2_1 TorPl_1_4 BynPl_1_1 BynPl_1_2 BynPl_1_3 GorSq_1_2"/>
    </person>
    <person id="pedestrian195" depart="670.00">
        <walk edges="RidGa_2_1 TorPl_2_2 TorPl_1_4 BynPl_1_1 BynPl_1_2 BynPl_1_3 GorSq_1_1"/>
    </person>
    <person id="pedestrian196" depart="674.00">
        <walk edges="MalPl_1_1 BynPl_1_1 BynPl_1_2 BynPl_1_3"/>
    </person>
    <person id="pedestrian197" depart="675.00">
        <walk edges="GorSq_2_1 GorSq_2_2 BynPl_2_1 BynPl_2_2 BynPl_1_1 TorPl_1_4 GowSt_1_1"/>
    </person>
    <person id="pedestrian198" depart="684.00">
        <walk edges="TorPl_1_3 GowSt_2_1"/>
    </person>
    <person id="pedestrian199" depart="690.00">
        <walk edges="HunSt_2_1 TorPl_2_4"/>
    </person>
    <person id="pedestrian200" depart="695.00">
        <walk edges="TorPl_1_2 TorPl_1_3 GowSt_1_1"/>
    </person>
    <person id="pedestrian201" depart="700.00">
        <walk edges="BynPl_1_1 TorPl_1_4 TorPl_2_2 RidGa_1_1"/>
    </person>
    <person id="pedestrian202" depart="705.00">
        <walk edges="TorPl_2_2 TorPl_2_3 TorPl_2_4"/>
    </person>
    <person id="pedestrian203" depart="708.00">
        <walk edges="BynPl_1_1 BynPl_2_2 BynPl_2_1"/>
    </person>
    <person id="pedestrian204" depart="715.00">
        <walk edges="GorSq_1_3 GorSq_1_2 BynPl_1_3"/>
    </person>
    <person id="pedestrian205" depart="723.00">
        <walk edges="TorPl_1_4 TorPl_2_2 RidGa_1_1"/>
    </person>
    <person id="pedestrian206" depart="724.00">
        <walk edges="BynPl_1_1 TorPl_1_4 TorPl_1_3 CheMe_1_1"/>
    </person>
    <person id="pedestrian207" depart="727.00">
        <walk edges="MalSt_2_1 MalPl_1_1"/>
    </person>
    <person id="pedestrian208" depart="728.00">
        <walk edges="RidGa_1_1 TorPl_2_2 TorPl_2_1 BynPl_2_3 BynPl_2_2 BynPl_2_1"/>
    </person>
    <person id="pedestrian209" depart="738.00">
        <walk edges="BynPl_2_2 BynPl_1_2"/>
    </person>
    <person id="pedestrian210" depart="759.00">
        <walk edges="GowSt_1_2 TorPl_1_3 TorPl_1_2"/>
    </person>
    <person id="pedestrian211" depart="762.00">
        <walk edges="GowSt_2_2 TorPl_1_4 BynPl_1_1 BynPl_2_2 BynPl_2_1 GorSq_2_2 GorSq_2_1"/>
    </person>
    <person id="pedestrian212" depart="779.00">
        <walk edges="MalSt_1_1 TorPl_1_4"/>
    </person>
    <person id="pedestrian213" depart="789.00">
        <walk edges="MalSt_2_1 BynPl_2_3 BynPl_2_2 BynPl_1_3 GorSq_1_2 GorSq_1_3"/>
    </person>
    <person id="pedestrian214" depart="789.00">
        <walk edges="HunSt_2_1 TorPl_2_3 TorPl_2_2 GowSt_1_2"/>
    </person>
    <person id="pedestrian215" depart="791.00">
        <walk edges="TorPl_2_3 TorPl_2_2 TorPl_2_1 MalSt_2_1"/>
    </person>
    <person id="pedestrian216" depart="793.00">
        <walk edges="TorPl_1_2 TorPl_1_3 TorPl_1_4 MalSt_1_1"/>
    </person>
    <person id="pedestrian217" depart="794.00">
        <walk edges="GowSt_2_1 TorPl_1_3 TorPl_1_2"/>
    </person>
    <person id="pedestrian218" depart="798.00">
        <walk edges="TorPl_2_2 TorPl_1_4 BynPl_1_1 BynPl_1_2 BynPl_1_3 GorSq_1_1"/>
    </person>
    <person id="pedestrian219" depart="800.00">
        <walk edges="TorPl_1_4 TorPl_1_3 TorPl_1_2 HunSt_1_1"/>
    </person>
    <person id="pedestrian220" depart="801.00">
        <walk edges="CheMe_2_1 TorPl_1_3 TorPl_1_4 BynPl_1_1 BynPl_2_2 BynPl_2_1 GorSq_2_2"/>
    </person>
    <person id="pedestrian221" depart="802.00">
        <walk edges="BynPl_2_2 BynPl_2_3 TorPl_2_1 TorPl_2_2 TorPl_2_3 TorPl_2_4"/>
    </person>
    <person id="pedestrian222" depart="804.00">
        <walk edges="HunSt_1_1 TorPl_1_2 TorPl_1_3 TorPl_1_4 BynPl_1_1 BynPl_1_2 BynPl_1_3 GorSq_1_2 GorSq_1_3"/>
    </person>