<?xml version="1.0" encoding="UTF-8"?>

<!-- generated on 2025-12-31 15:30:18.550937 by Eclipse SUMO randomTrips.py UNKNOWN
<configuration>
    <net-file value="../networks/demo/main.net.xml"/>
    <output-trip-file value="../routes/demo/eval/12/pedestrian.trips.xml"/>
    <route-file value="../routes/demo/eval/12/pedestrian.rou.xml"/>
    <pedestrians value="True"/>
    <prefix value="pedestrian"/>
    <seed value="12"/>
    <insertion-density value="300.0"/>
    <binomial value="100"/>
</configuration>
-->

<!-- generated on 2025-12-31T15:30:18.526723+00:00 by Eclipse SUMO duarouter 1.25.0
<duarouterConfiguration xmlns:xsi="http://www.w3.org/2001/XMLSchema-instance" xsi:noNamespaceSchemaLocation="http://sumo.dlr.de/xsd/duarouterConfiguration.xsd">

    <input>
        <net-file value="../networks/demo/main.net.xml"/>
        <route-files value="../routes/demo/eval/12/pedestrian.trips.xml"/>
    </input>

    <output>
        <output-file value="../routes/demo/eval/12/pedestrian.rou.xml"/>
        <alternatives-output value="NUL"/>
    </output>

    <time>
        <begin value="0"/>
        <end value="3600.0"/>
    </time>

    <report>
        <no-warnings value="true"/>
        <ignore-errors value="true"/>
        <no-step-log value="true"/>
    </report>

</duarouterConfiguration>
-->

<routes xmlns:xsi="http://www.w3.org/2001/XMLSchema-instance" xsi:noNamespaceSchemaLocation="http://sumo.dlr.de/xsd/routes_file.xsd">
    <person id="pedestrian0" depart="6.00">
        <walk edges="BynPl_2_1 BynPl_2_2 BynPl_1_1"/>
    </person>
    <person id="pedestrian1" depart="8.00">
        <walk edges="GorSq_1_1 BynPl_1_3 BynPl_1_2 BynPl_1_1 TorPl_1_4 TorPl_1_3 TorPl_1_2 HunSt_1_1"/>
    </person>
    <person id="pedestrian2" depart="13.00">
        <walk edges="BynPl_2_3 TorPl_2_1 TorPl_2_2 TorPl_2_3 TorPl_2_4"/>
    </person>
    <person id="pedestrian3" depart="18.00">
        <walk edges="MalSt_1_1 TorPl_1_4 TorPl_1_3 CheMe_2_1"/>
    </person>
    <person id="pedestrian4" depart="18.00">
        <walk edges="BynPl_2_3 MalSt_1_1"/>
    </person>
    <person id="pedestrian5" depart="23.00">
        <walk edges="BynPl_2_1 BynPl_2_2 BynPl_1_1 MalPl_1_1"/>
    </person>
    <person id="pedestrian6" depart="24.00">
        <walk edges="MalPl_1_1 TorPl_1_4 TorPl_2_2 RidGa_2_1"/>
    </person>
    <person id="pedestrian7" depart="26.00">
        <walk edges="GorSq_1_2 BynPl_1_3 BynPl_1_2 BynPl_1_1 TorPl_1_4 TorPl_1_3 TorPl_1_2 TorPl_2_4"/>
    </person>
    <person id="pedestrian8" depart="27.00">
        <walk edges="MalSt_1_1 TorPl_1_4 TorPl_1_3 CheMe_2_1"/>
    </person>
    <person id="pedestrian9" depart="30.00">
        <walk edges="CheMe_1_1 TorPl_1_2 HunSt_1_2"/>
    </person>
    <person id="pedestrian10" depart="32.00">
        <walk edges="TorPl_2_1 TorPl_2_2 TorPl_2_3 HunSt_1_1"/>
    </person>
    <person id="pedestrian11" depart="33.00">
        <walk edges="TorPl_2_1 GowSt_2_2"/>
    </person>
    <person id="pedestrian12" depart="33.00">
        <walk edges="CheMe_1_1 TorPl_1_3 TorPl_1_4 BynPl_1_1 BynPl_2_2 BynPl_2_1 GorSq_2_2 GorSq_2_1"/>
    </person>
    <person id="pedestrian13" depart="35.00">
        <walk edges="HunSt_2_2 TorPl_1_1"/>
    </person>
    <person id="pedestrian14" depart="37.00">
        <walk edges="GorSq_1_3 GorSq_1_2 BynPl_1_3 BynPl_1_2 BynPl_1_1 TorPl_1_4 TorPl_2_2 TorPl_2_3"/>
    </person>
    <person id="pedestrian15" depart="40.00">
        <walk edges="HunSt_1_1 TorPl_2_3"/>
    </person>
    <person id="pedestrian16" depart="45.00">
        <walk edges="MalSt_2_1 TorPl_2_1 TorPl_2_2 TorPl_2_3 HunSt_1_1"/>
    </person>
    <person id="pedestrian17" depart="48.00">
        <walk edges="GowSt_2_2 TorPl_1_4 BynPl_1_1 BynPl_1_2"/>
    </person>
    <person id="pedestrian18" depart="50.00">
        <walk edges="RidGa_1_1 TorPl_2_3 TorPl_1_1"/>
    </person>
    <person id="pedestrian19" depart="51.00">
        <walk edges="HunSt_1_2 TorPl_2_3 TorPl_2_2 TorPl_1_4 BynPl_1_1 BynPl_1_2 BynPl_1_3 GorSq_1_2"/>
    </person>
    <person id="pedestrian20" depart="54.00">
        <walk edges="HunSt_1_1 TorPl_1_2 TorPl_1_3 TorPl_1_4 BynPl_1_1 BynPl_2_2 BynPl_2_1 GorSq_2_2 GorSq_2_1"/>
    </person>
    <person id="pedestrian21" depart="55.00">
        <walk edges="GowSt_2_2 TorPl_1_3 TorPl_1_2 HunSt_2_1"/>
    </person>
    <person id="pedestrian22" depart="65.00">
        <walk edges="TorPl_2_1 TorPl_1_3 CheMe_1_1"/>
    </person>
    <person id="pedestrian23" depart="70.00">
        <walk edges="GorSq_1_2 GorSq_2_1"/>
    </person>
    <person id="pedestrian24" depart="73.00">
        <walk edges="BynPl_2_3 BynPl_1_2"/>
    </person>
    <person id="pedestrian25" depart="74.00">
        <walk edges="TorPl_2_3 TorPl_1_1"/>
    </person>
    <person id="pedestrian26" depart="75.00">
        <walk edges="MalSt_2_1 TorPl_2_1 TorPl_2_2 TorPl_2_3 HunSt_2_2"/>
    </person>
    <person id="pedestrian27" depart="78.00">
        <walk edges="TorPl_1_4"/>
    </person>
    <person id="pedestrian28" depart="78.00">
        <walk edges="HunSt_1_1 TorPl_1_2"/>
    </person>
    <person id="pedestrian29" depart="82.00">
        <walk edges="GowSt_2_1 TorPl_1_4 BynPl_1_1 BynPl_1_2 BynPl_1_3 GorSq_1_2 GorSq_1_3"/>
    </person>
    <person id="pedestrian30" depart="82.00">
        <walk edges="HunSt_1_1 TorPl_2_3 TorPl_2_2"/>
    </person>
    <person id="pedestrian31" depart="83.00">
        <walk edges="CheMe_2_1 TorPl_1_3 TorPl_1_4 BynPl_1_1 BynPl_1_2 BynPl_1_3 GorSq_1_1"/>
    </person>
    <person id="pedestrian32" depart="83.00">
        <walk edges="GorSq_1_3 GorSq_2_2"/>
    </person>
    <person id="pedestrian33" depart="90.00">
        <walk edges="BynPl_2_3 BynPl_2_2 BynPl_2_1 GorSq_2_2 GorSq_2_1"/>
    </person>
    <person id="pedestrian34" depart="90.00">
        <walk edges="MalSt_2_1 BynPl_2_3 BynPl_2_2 BynPl_1_3"/>
    </person>
    <person id="pedestrian35" depart="92.00">
        <walk edges="TorPl_1_3 GowSt_2_1"/>
    </person>
    <person id="pedestrian36" depart="94.00">
        <walk edges="HunSt_1_1 TorPl_1_2 TorPl_1_3 TorPl_1_4 BynPl_2_3"/>
    </person>
    <person id="pedestrian37" depart="94.00">
        <walk edges="CheMe_1_1 TorPl_1_3 TorPl_1_4"/>
    </person>
    <person id="pedestrian38" depart="94.00">
        <walk edges="HunSt_2_2 TorPl_1_2 TorPl_1_3 GowSt_1_1"/>
    </person>
    <person id="pedestrian39" depart="98.00">
        <walk edges="TorPl_2_3 TorPl_2_2 TorPl_2_1"/>
    </person>
    <person id="pedestrian40" depart="110.00">
        <walk edges="BynPl_2_3 TorPl_2_1"/>
    </person>
    <person id="pedestrian41" depart="112.00">
        <walk edges="CheMe_1_1 TorPl_1_2 TorPl_2_3"/>
    </person>
    <person id="pedestrian42" depart="117.00">
        <walk edges="MalPl_2_1 TorPl_1_4 TorPl_1_3 TorPl_1_2"/>
    </person>
    <person id="pedestrian43" depart="118.00">
        <walk edges="MalSt_1_1 TorPl_1_4 TorPl_1_3 CheMe_1_1"/>
    </person>
    <person id="pedestrian44" depart="121.00">
        <walk edges="BynPl_1_2 BynPl_1_3 GorSq_2_3"/>
    </person>
    <person id="pedestrian45" depart="125.00">
        <walk edges="TorPl_2_1 GowSt_1_1"/>
    </person>
    <person id="pedestrian46" depart="125.00">
        <walk edges="TorPl_2_1 GowSt_2_1"/>
    </person>
    <person id="pedestrian47" depart="127.00">
        <walk edges="CheMe_1_1 TorPl_1_3 TorPl_1_4 BynPl_1_1 BynPl_1_2 BynPl_1_3 GorSq_2_3"/>
    </person>
    <person id="pedestrian48" depart="128.00">
        <walk edges="BynPl_1_1 BynPl_1_2 BynPl_1_3"/>
    </person>
    <person id="pedestrian49" depart="136.00">
        <walk edges="CheMe_1_1 TorPl_1_3 GowSt_2_1"/>
    </person>
    <person id="pedestrian50" depart="138.00">
        <walk edges="GowSt_2_2 TorPl_2_2 RidGa_1_1"/>
    </person>
    <person id="pedestrian51" depart="145.00">
        <walk edges="GorSq_2_2 BynPl_2_1 BynPl_2_2 BynPl_1_1 TorPl_1_4 TorPl_1_3 TorPl_1_2 HunSt_1_1"/>
    </person>
    <person id="pedestrian52" depart="147.00">
        <walk edges="GowSt_1_1 TorPl_1_3"/>
    </person>
    <person id="pedestrian53" depart="150.00">
        <walk edges="GowSt_1_1 GowSt_2_2"/>
    </person>
    <person id="pedestrian54" depart="154.00">
        <walk edges="TorPl_2_2 TorPl_1_4 BynPl_1_1 BynPl_1_2 BynPl_1_3"/>
    </person>
    <person id="pedestrian55" depart="154.00">
        <walk edges="TorPl_1_3 TorPl_1_4 BynPl_1_1 BynPl_1_2 BynPl_1_3 GorSq_1_2 GorSq_1_3"/>
    </person>
    <person id="pedestrian56" depart="154.00">
        <walk edges="MalPl_2_1 BynPl_1_1 BynPl_1_2 BynPl_1_3 GorSq_2_3"/>
    </person>
    <person id="pedestrian57" depart="157.00">
        <walk edges="GorSq_2_2 BynPl_2_1 BynPl_2_2 BynPl_2_3 TorPl_2_1"/>
    </person>
    <person id="pedestrian58" depart="158.00">
        <walk edges="CheMe_1_1 TorPl_1_3 GowSt_2_1"/>
    </person>
    <person id="pedestrian59" depart="160.00">
        <walk edges="BynPl_2_3 TorPl_1_4 TorPl_1_3 TorPl_1_2 HunSt_2_2"/>
    </person>
    <person id="pedestrian60" depart="162.00">
        <walk edges="BynPl_2_3 TorPl_2_1 TorPl_2_2 TorPl_2_3"/>
    </person>
    <person id="pedestrian61" depart="167.00">
        <walk edges="TorPl_2_3 TorPl_1_1"/>
    </person>
    <person id="pedestrian62" depart="176.00">
        <walk edges="GorSq_1_3 GorSq_1_2 BynPl_1_3 BynPl_1_2 BynPl_1_1 TorPl_1_4 TorPl_1_3 TorPl_1_2 HunSt_2_2"/>
    </person>
    <person id="pedestrian63" depart="177.00">
        <walk edges="BynPl_1_3 BynPl_1_2 BynPl_1_1 TorPl_1_4"/>
    </person>
    <person id="pedestrian64" depart="180.00">
        <walk edges="HunSt_2_2 TorPl_1_2 TorPl_1_3 TorPl_1_4 BynPl_1_1 BynPl_2_2 BynPl_2_1 GorSq_2_2"/>
    </person>
    <person id="pedestrian65" depart="182.00">
        <walk edges="GowSt_1_1 TorPl_2_2"/>
    </person>
    <person id="pedestrian66" depart="187.00">
        <walk edges="TorPl_1_4 TorPl_2_2"/>
    </person>
    <person id="pedestrian67" depart="191.00">
        <walk edges="GowSt_2_2 TorPl_2_2 RidGa_2_1"/>
    </person>
    <person id="pedestrian68" depart="194.00">
        <walk edges="HunSt_1_1 TorPl_2_3 TorPl_2_2 TorPl_2_1 MalSt_2_1"/>
    </person>
    <person id="pedestrian69" depart="204.00">
        <walk edges="TorPl_2_2 GowSt_1_1"/>
    </person>
    <person id="pedestrian70" depart="207.00">
        <walk edges="CheMe_2_1 TorPl_1_3 TorPl_1_4"/>
    </person>
    <person id="pedestrian71" depart="209.00">
        <walk edges="RidGa_2_1 TorPl_2_2 TorPl_2_1 MalSt_1_1"/>
    </person>
    <person id="pedestrian72" depart="211.00">
        <walk edges="TorPl_2_4 TorPl_2_3 RidGa_2_1"/>
    </person>
    <person id="pedestrian73" depart="218.00">
        <walk edges="CheMe_2_1 TorPl_1_3 TorPl_1_4 BynPl_1_1 BynPl_1_2 BynPl_1_3 GorSq_1_2 GorSq_1_3"/>
    </person>
    <person id="pedestrian74" depart="223.00">
        <walk edges="BynPl_1_3 GorSq_2_3"/>
    </person>
    <person id="pedestrian75" depart="224.00">
        <walk edges="TorPl_2_3 TorPl_2_2 GowSt_2_2"/>
    </person>
    <person id="pedestrian76" depart="228.00">
        <walk edges="GowSt_2_2 TorPl_1_3 TorPl_1_2"/>
    </person>
    <person id="pedestrian77" depart="230.00">
        <walk edges="TorPl_2_3 TorPl_2_2 TorPl_2_1 MalSt_1_1"/>
    </person>
    <person id="pedestrian78" depart="232.00">
        <walk edges="TorPl_1_2 HunSt_2_1"/>
    </person>
    <person id="pedestrian79" depart="232.00">
        <walk edges="BynPl_1_3 BynPl_1_2 BynPl_1_1 TorPl_1_4 GowSt_2_2"/>
    </person>
    <person id="pedestrian80" depart="234.00">
        <walk edges="CheMe_1_1 TorPl_1_3 TorPl_2_2"/>
    </person>
    <person id="pedestrian81" depart="238.00">
        <walk edges="MalSt_2_1 TorPl_2_1 TorPl_2_2 TorPl_2_3 HunSt_2_1"/>
    </person>
    <person id="pedestrian82" depart="239.00">
        <walk edges="BynPl_1_3 BynPl_1_2 BynPl_1_1 TorPl_1_4 TorPl_1_3 TorPl_1_2 HunSt_2_2"/>
    </person>
    <person id="pedestrian83" depart="242.00">
        <walk edges="MalPl_2_1 BynPl_1_1 BynPl_2_2"/>
    </person>
    <person id="pedestrian84" depart="247.00">
        <walk edges="GorSq_1_1 BynPl_1_3 BynPl_1_2 BynPl_1_1 TorPl_1_4 TorPl_1_3 TorPl_1_2 HunSt_1_1"/>
    </person>
    <person id="pedestrian85" depart="248.00">
        <walk edges="GorSq_1_1 GorSq_1_2 GorSq_1_3"/>
    </person>
    <person id="pedestrian86" depart="249.00">
        <walk edges="HunSt_2_1 TorPl_2_3"/>
    </person>
    <person id="pedestrian87" depart="249.00">
        <walk edges="CheMe_2_1 TorPl_1_3 TorPl_1_4 BynPl_1_1 BynPl_1_2 BynPl_1_3 GorSq_1_2"/>
    </person>
    <person id="pedestrian88" depart="251.00">
        <walk edges="MalSt_2_1 TorPl_2_1 GowSt_1_2"/>
    </person>
    <person id="pedestrian89" depart="255.00">
        <walk edges="TorPl_1_2 TorPl_1_3 TorPl_2_1 MalSt_2_1"/>
    </person>
    <person id="pedestrian90" depart="255.00">
        <walk edges="MalSt_2_1 BynPl_2_3 BynPl_2_2 BynPl_1_3 GorSq_1_2 GorSq_1_3"/>
    </person>
    <person id="pedestrian91" depart="256.00">
        <walk edges="GorSq_2_1 GorSq_2_2 BynPl_2_1 BynPl_2_2 BynPl_2_3 TorPl_2_1 TorPl_2_2 TorPl_2_3 HunSt_1_2"/>
    </person>
    <person id="pedestrian92" depart="257.00">
        <walk edges="MalSt_2_1 BynPl_2_3 BynPl_2_2 BynPl_2_1 GorSq_2_2"/>
    </person>
    <person id="pedestrian93" depart="259.00">
        <walk edges="MalSt_1_1"/>
    </person>
    <person id="pedestrian94" depart="263.00">
        <walk edges="BynPl_1_1 TorPl_1_4 TorPl_1_3 CheMe_2_1"/>
    </person>
    <person id="pedestrian95" depart="263.00">
        <walk edges="BynPl_2_3 TorPl_2_1"/>
    </person>
    <person id="pedestrian96" depart="265.00">
        <walk edges="MalPl_2_1 MalSt_1_1"/>
    </person>
    <person id="pedestrian97" depart="268.00">
        <walk edges="RidGa_1_1 TorPl_2_2 TorPl_1_4 BynPl_1_1 BynPl_1_2 BynPl_1_3 GorSq_1_1"/>
    </person>
    <person id="pedestrian98" depart="275.00">
        <walk edges="BynPl_2_3 BynPl_1_1"/>
    </person>
    <person id="pedestrian99" depart="275.00">
        <walk edges="TorPl_1_1 TorPl_2_3 TorPl_2_2 TorPl_2_1"/>
    </person>
    <person id="pedestrian100" depart="275.00">
        <walk edges="GorSq_1_1 BynPl_1_3 BynPl_2_1"/>
    </person>
    <person id="pedestrian101" depart="277.00">
        <walk edges="GorSq_1_3 GorSq_1_2 GorSq_2_3"/>
    </person>
    <person id="pedestrian102" depart="280.00">
        <walk edges="TorPl_2_2"/>
    </person>
    <person id="pedestrian103" depart="283.00">
        <walk edges="BynPl_2_1 BynPl_2_2 BynPl_1_1 MalPl_2_1"/>
    </person>
    <person id="pedestrian104" depart="287.00">
        <walk edges="GowSt_1_1 TorPl_2_1 MalSt_2_1"/>
    </person>
    <person id="pedestrian105" depart="287.00">
        <walk edges="HunSt_2_1 TorPl_2_3 TorPl_2_2 TorPl_2_1"/>
    </person>
    <person id="pedestrian106" depart="289.00">
        <walk edges="TorPl_2_3 HunSt_1_2"/>
    </person>
    <person id="pedestrian107" depart="292.00">
        <walk edges="RidGa_2_1 TorPl_2_2 TorPl_2_1 BynPl_2_3 BynPl_2_2 BynPl_2_1 GorSq_2_2"/>
    </person>
    <person id="pedestrian108" depart="302.00">
        <walk edges="BynPl_1_1 TorPl_1_4 TorPl_1_3"/>
    </person>
    <person id="pedestrian109" depart="303.00">
        <walk edges="GorSq_2_3 BynPl_1_3 BynPl_1_2 BynPl_1_1 MalPl_1_1"/>
    </person>
    <person id="pedestrian110" depart="304.00">
        <walk edges="GowSt_1_2 TorPl_1_4 BynPl_1_1"/>
    </person>
    <person id="pedestrian111" depart="314.00">
        <walk edges="TorPl_1_1 TorPl_1_2 TorPl_1_3 TorPl_1_4 BynPl_1_1 BynPl_2_2 BynPl_2_1 GorSq_2_2 GorSq_2_1"/>
    </person>
    <person id="pedestrian112" depart="314.00">
        <walk edges="BynPl_2_1 BynPl_2_2 BynPl_1_1 TorPl_1_4 TorPl_1_3 TorPl_1_2 HunSt_1_1"/>
    </person>
    <person id="pedestrian113" depart="316.00">
        <walk edges="CheMe_1_1 TorPl_1_3 GowSt_1_2"/>
    </person>
    <person id="pedestrian114" depart="323.00">
        <walk edges="TorPl_1_4 GowSt_1_2"/>
    </person>
    <person id="pedestrian115" depart="325.00">
        <walk edges="RidGa_1_1 TorPl_2_2 TorPl_1_4 MalPl_1_1"/>
    </person>
    <person id="pedestrian116" depart="330.00">
        <walk edges="GorSq_2_3 BynPl_1_3 BynPl_1_2 BynPl_1_1 TorPl_1_4 TorPl_2_2 RidGa_2_1"/>
    </person>
    <person id="pedestrian117" depart="330.00">
        <walk edges="GowSt_2_1 TorPl_2_2 TorPl_2_3 TorPl_2_4"/>
    </person>
    <person id="pedestrian118" depart="330.00">
        <walk edges="HunSt_1_1 TorPl_1_1"/>
    </person>
    <person id="pedestrian119" depart="332.00">
        <walk edges="GowSt_1_1 TorPl_1_4 BynPl_1_1 BynPl_1_2 BynPl_1_3 GorSq_1_1"/>
    </person>
    <person id="pedestrian120" depart="333.00">
        <walk edges="TorPl_2_2 RidGa_2_1"/>
    </person>
    <person id="pedestrian121" depart="333.00">
        <walk edges="MalSt_2_1 TorPl_2_1 TorPl_2_2"/>
    </person>
    <person id="pedestrian122" depart="336.00">
        <walk edges="BynPl_1_3 BynPl_2_2 BynPl_2_3 MalSt_1_1"/>
    </person>
    <person id="pedestrian123" depart="339.00">
        <walk edges="TorPl_2_1 GowSt_2_2"/>
    </person>
    <person id="pedestrian124" depart="341.00">
        <walk edges="HunSt_2_1 TorPl_2_3 TorPl_2_2 TorPl_2_1 BynPl_2_3 BynPl_2_2 BynPl_2_1 GorSq_2_2"/>
    </person>
    <person id="pedestrian125" depart="341.00">
        <walk edges="MalSt_1_1 TorPl_2_1 TorPl_2_2 TorPl_2_3 TorPl_2_4"/>
    </person>
    <person id="pedestrian126" depart="341.00">
        <walk edges="GorSq_2_2 BynPl_2_1 BynPl_2_2 BynPl_1_1 TorPl_1_4 TorPl_1_3 TorPl_1_2 TorPl_1_1"/>
    </person>
    <person id="pedestrian127" depart="345.00">
        <walk edges="TorPl_2_1 GowSt_2_2"/>
    </person>
    <person id="pedestrian128" depart="350.00">
        <walk edges="GorSq_2_2 BynPl_2_1 BynPl_2_2 BynPl_1_1 TorPl_1_4 TorPl_1_3 TorPl_1_2 TorPl_1_1"/>
    </person>
    <person id="pedestrian129" depart="360.00">
        <walk edges="GowSt_2_1 TorPl_1_4 BynPl_1_1 BynPl_1_2 BynPl_1_3"/>
    </person>
    <person id="pedestrian130" depart="361.00">
        <walk edges="RidGa_1_1 TorPl_2_3 TorPl_1_2 CheMe_1_1"/>
    </person>
    <person id="pedestrian131" depart="362.00">
        <walk edges="BynPl_1_3 BynPl_1_2 BynPl_1_1 TorPl_1_4 GowSt_2_1"/>
    </person>
    <person id="pedestrian132" depart="364.00">
        <walk edges="MalSt_1_1 TorPl_2_1 TorPl_2_2 TorPl_2_3 HunSt_2_1"/>
    </person>
    <person id="pedestrian133" depart="367.00">
        <walk edges="GorSq_2_3 BynPl_1_3 BynPl_1_2 BynPl_1_1 TorPl_1_4 TorPl_2_2 RidGa_1_1"/>
    </person>
    <person id="pedestrian134" depart="367.00">
        <walk edges="BynPl_2_1 BynPl_2_2 BynPl_2_3 TorPl_2_1"/>
    </person>
    <person id="pedestrian135" depart="369.00">
        <walk edges="GorSq_1_2 BynPl_1_3 BynPl_1_2 BynPl_1_1 TorPl_1_4 GowSt_1_1"/>
    </person>
    <person id="pedestrian136" depart="371.00">
        <walk edges="GorSq_2_1 GorSq_2_2 BynPl_2_1 BynPl_2_2 BynPl_2_3 TorPl_2_1 TorPl_2_2 RidGa_2_1"/>
    </person>
    <person id="pedestrian137" depart="372.00">
        <walk edges="GorSq_1_1 BynPl_1_3 BynPl_1_2 BynPl_1_1 MalPl_1_1"/>
    </person>
    <person id="pedestrian138" depart="376.00">
        <walk edges="BynPl_2_2 BynPl_2_1 GorSq_2_2 GorSq_2_1"/>
    </person>
    <person id="pedestrian139" depart="378.00">
        <walk edges="TorPl_2_1 TorPl_2_2 TorPl_2_3 HunSt_2_1"/>
    </person>
    <person id="pedestrian140" depart="397.00">
        <walk edges="TorPl_1_2 TorPl_1_3 TorPl_1_4 BynPl_1_1 BynPl_2_2 BynPl_2_1"/>
    </person>
    <person id="pedestrian141" depart="400.00">
        <walk edges="GorSq_1_3 GorSq_2_1"/>
    </person>
    <person id="pedestrian142" depart="401.00">
        <walk edges="RidGa_2_1 TorPl_2_2 TorPl_1_4 BynPl_1_1 BynPl_1_2 BynPl_1_3"/>
    </person>
    <person id="pedestrian143" depart="405.00">
        <walk edges="GorSq_1_2 BynPl_1_3 BynPl_1_2 BynPl_1_1 TorPl_1_4 TorPl_1_3 TorPl_1_2 HunSt_2_2"/>
    </person>
    <person id="pedestrian144" depart="406.00">
        <walk edges="GorSq_2_2 BynPl_2_1 BynPl_2_2 BynPl_2_3 TorPl_2_1 TorPl_2_2 RidGa_1_1"/>
    </person>
    <person id="pedestrian145" depart="413.00">
        <walk edges="MalPl_1_1 BynPl_1_1"/>
    </person>
    <person id="pedestrian146" depart="414.00">
        <walk edges="GowSt_2_2 TorPl_1_3 TorPl_1_2 TorPl_2_4"/>
    </person>
    <person id="pedestrian147" depart="421.00">
        <walk edges="GorSq_2_1 GorSq_2_2 BynPl_2_1 BynPl_2_2 BynPl_1_1 TorPl_1_4 TorPl_1_3 TorPl_1_2"/>
    </person>
    <person id="pedestrian148" depart="421.00">
        <walk edges="GowSt_1_2 TorPl_2_2 TorPl_2_3 HunSt_1_2"/>
    </person>
    <person id="pedestrian149" depart="425.00">
        <walk edges="TorPl_2_2 TorPl_1_3"/>
    </person>
    <person id="pedestrian150" depart="426.00">
        <walk edges="MalSt_2_1 TorPl_1_4"/>
    </person>
    <person id="pedestrian151" depart="429.00">
        <walk edges="TorPl_1_4 BynPl_2_3"/>
    </person>
    <person id="pedestrian152" depart="434.00">
        <walk edges="GowSt_1_2 TorPl_2_1 MalSt_1_1"/>
    </person>
    <person id="pedestrian153" depart="437.00">
        <walk edges="MalPl_2_1 TorPl_1_4 TorPl_1_3 TorPl_1_2"/>
    </person>
    <person id="pedestrian154" depart="438.00">
        <walk edges="MalSt_1_1 BynPl_2_3 BynPl_2_2"/>
    </person>
    <person id="pedestrian155" depart="439.00">
        <walk edges="HunSt_2_2 TorPl_1_2 TorPl_1_3 TorPl_1_4 BynPl_2_3"/>
    </person>
    <person id="pedestrian156" depart="440.00">
        <walk edges="TorPl_2_1 BynPl_2_3 BynPl_2_2 BynPl_1_3 GorSq_1_2 GorSq_1_3"/>
    </person>
    <person id="pedestrian157" depart="442.00">
        <walk edges="TorPl_2_2 TorPl_1_3 CheMe_2_1"/>
    </person>
    <person id="pedestrian158" depart="444.00">
        <walk edges="BynPl_1_2 BynPl_1_1 MalPl_1_1"/>
    </person>
    <person id="pedestrian159" depart="448.00">
        <walk edges="HunSt_1_1 TorPl_1_2 CheMe_1_1"/>
    </person>
    <person id="pedestrian160" depart="449.00">
        <walk edges="BynPl_2_2 BynPl_1_1 MalPl_2_1"/>
    </person>
    <person id="pedestrian161" depart="450.00">
        <walk edges="GorSq_1_1 BynPl_1_3 BynPl_2_2 BynPl_2_3"/>
    </person>
    <person id="pedestrian162" depart="452.00">
        <walk edges="MalPl_1_1 BynPl_1_1 BynPl_2_2 BynPl_2_1 GorSq_2_2"/>
    </person>
    <person id="pedestrian163" depart="452.00">
        <walk edges="BynPl_1_2 BynPl_1_1 TorPl_1_4 TorPl_1_3 TorPl_1_2 HunSt_2_1"/>
    </person>
    <person id="pedestrian164" depart="454.00">
        <walk edges="HunSt_2_2 TorPl_2_3"/>
    </person>
    <person id="pedestrian165" depart="458.00">
        <walk edges="TorPl_2_4 HunSt_1_1"/>
    </person>
    <person id="pedestrian166" depart="461.00">
        <walk edges="RidGa_2_1 TorPl_2_2 TorPl_2_1 MalSt_1_1"/>
    </person>
    <person id="pedestrian167" depart="467.00">
        <walk edges="TorPl_1_4 TorPl_1_3 TorPl_1_2 HunSt_1_1"/>
    </person>
    <person id="pedestrian168" depart="467.00">
        <walk edges="GorSq_1_2 BynPl_1_3 BynPl_2_2"/>
    </person>
    <person id="pedestrian169" depart="468.00">
        <walk edges="GowSt_1_2 TorPl_2_2"/>
    </person>
    <person id="pedestrian170" depart="473.00">
        <walk edges="GorSq_2_3 BynPl_1_3 BynPl_1_2 BynPl_1_1 TorPl_1_4 GowSt_1_2"/>
    </person>
    <person id="pedestrian171" depart="482.00">
        <walk edges="BynPl_1_3 BynPl_2_2 BynPl_2_3"/>
    </person>
    <person id="pedestrian172" depart="485.00">
        <walk edges="TorPl_2_2 TorPl_2_1 BynPl_2_3 BynPl_2_2 BynPl_2_1"/>
    </person>
    <person id="pedestrian173" depart="487.00">
        <walk edges="TorPl_1_4"/>
    </person>
    <person id="pedestrian174" depart="488.00">
        <walk edges="HunSt_1_2 HunSt_1_1"/>
    </person>
    <person id="pedestrian175" depart="489.00">
        <walk edges="BynPl_2_1 BynPl_2_2 BynPl_2_3 TorPl_2_1 TorPl_2_2 RidGa_1_1"/>
    </person>
    <person id="pedestrian176" depart="491.00">
        <walk edges="TorPl_1_4 MalSt_1_1"/>
    </person>
    <person id="pedestrian177" depart="499.00">
        <walk edges="GorSq_1_3 GorSq_1_2 BynPl_1_3 BynPl_1_2 BynPl_1_1 TorPl_1_4 TorPl_1_3 TorPl_1_2 TorPl_1_1"/>
    </person>
    <person id="pedestrian178" depart="505.00">
        <walk edges="TorPl_1_2 HunSt_2_1"/>
    </person>
    <person id="pedestrian179" depart="506.00">
        <walk edges="BynPl_1_3 BynPl_1_2"/>
    </person>
    <person id="pedestrian180" depart="508.00">
        <walk edges="TorPl_2_3 TorPl_2_2 TorPl_1_4 BynPl_1_1 BynPl_1_2 BynPl_1_3 GorSq_1_1"/>
    </person>
    <person id="pedestrian181" depart="514.00">
        <walk edges="GowSt_1_2 TorPl_2_1 MalSt_1_1"/>
    </person>
    <person id="pedestrian182" depart="515.00">
        <walk edges="GorSq_1_2 GorSq_2_3"/>
    </person>
    <person id="pedestrian183" depart="515.00">
        <walk edges="HunSt_2_1 TorPl_1_2 TorPl_1_3"/>
    </person>
    <person id="pedestrian184" depart="515.00">
        <walk edges="GowSt_2_2 TorPl_1_3 TorPl_1_2 HunSt_2_1"/>
    </person>
    <person id="pedestrian185" depart="516.00">
        <walk edges="BynPl_1_3 BynPl_2_2"/>
    </person>
    <person id="pedestrian186" depart="520.00">
        <walk edges="HunSt_1_2 TorPl_2_3 TorPl_2_2 TorPl_2_1 MalSt_1_1"/>
    </person>
    <person id="pedestrian187" depart="523.00">
        <walk edges="TorPl_2_4 TorPl_2_3 RidGa_1_1"/>
    </person>
    <person id="pedestrian188" depart="524.00">
        <walk edges="GowSt_1_2 TorPl_1_4 BynPl_1_1 BynPl_1_2 BynPl_1_3 GorSq_1_2"/>
    </person>
    <person id="pedestrian189" depart="524.00">
        <walk edges="MalSt_2_1 BynPl_2_3 BynPl_2_2 BynPl_2_1 GorSq_2_2"/>
    </person>
    <person id="pedestrian190" depart="526.00">
        <walk edges="MalPl_2_1 BynPl_1_1 BynPl_1_2 BynPl_1_3 GorSq_1_2"/>
    </person>
    <person id="pedestrian191" depart="526.00">
        <walk edges="BynPl_1_3 BynPl_1_2 BynPl_1_1 TorPl_1_4 TorPl_2_2 TorPl_2_3 HunSt_1_2"/>
    </person>
    <person id="pedestrian192" depart="528.00">
        <walk edges="TorPl_2_2 TorPl_2_3 HunSt_2_2"/>
    </person>
    <person id="pedestrian193" depart="528.00">
        <walk edges="TorPl_2_3 TorPl_2_2 TorPl_2_1 BynPl_2_3 BynPl_2_2 BynPl_2_1 GorSq_2_2"/>
    </person>
    <person id="pedestrian194" depart="535.00">
        <walk edges="GowSt_1_2 TorPl_2_1 BynPl_2_3"/>
    </person>
    <person id="pedestrian195" depart="537.00">
        <walk edges="TorPl_1_3 TorPl_2_1 MalSt_2_1"/>
    </person>
    <person id="pedestrian196" depart="537.00">
        <walk edges="MalPl_1_1 BynPl_1_1 BynPl_2_2 BynPl_2_1"/>
    </person>
    <person id="pedestrian197" depart="543.00">
        <walk edges="BynPl_1_1 TorPl_1_4 TorPl_2_2"/>
    </person>
    <person id="pedestrian198" depart="544.00">
        <walk edges="TorPl_1_1 TorPl_2_3 RidGa_2_1"/>
    </person>
    <person id="pedestrian199" depart="546.00">
        <walk edges="BynPl_2_3 TorPl_2_1 TorPl_2_2 RidGa_2_1"/>
    </person>
    <person id="pedestrian200" depart="547.00">
        <walk edges="TorPl_2_4 TorPl_1_2 TorPl_1_3 TorPl_1_4 BynPl_1_1 BynPl_1_2 BynPl_1_3 GorSq_1_2 GorSq_1_3"/>
    </person>
    <person id="pedestrian201" depart="551.00">
        <walk edges="HunSt_2_1 TorPl_2_3 TorPl_2_2"/>
    </person>
    <person id="pedestrian202" depart="552.00">
        <walk edges="GowSt_2_1 TorPl_1_3"/>
    </person>
    <person id="pedestrian203" depart="554.00">
        <walk edges="TorPl_1_1 TorPl_1_2 TorPl_1_3 TorPl_1_4 BynPl_1_1"/>
    </person>
    <person id="pedestrian204" depart="554.00">
        <walk edges="MalSt_2_1 TorPl_2_1 GowSt_2_1"/>
    </person>
    <person id="pedestrian205" depart="555.00">
        <walk edges="GowSt_2_2 TorPl_1_3 CheMe_2_1"/>
    </person>
    <person id="pedestrian206" depart="557.00">
        <walk edges="CheMe_1_1 TorPl_1_3 TorPl_1_4 BynPl_1_1 BynPl_2_2 BynPl_2_1"/>
    </person>
    <person id="pedestrian207" depart="559.00">
        <walk edges="GowSt_1_1"/>
    </person>
    <person id="pedestrian208" depart="563.00">
        <walk edges="HunSt_2_2 TorPl_1_2 TorPl_1_3 TorPl_1_4 MalPl_2_1"/>
    </person>
    <person id="pedestrian209" depart="568.00">
        <walk edges="TorPl_2_2 TorPl_2_1 BynPl_2_3 BynPl_2_2 BynPl_2_1 GorSq_2_2"/>
    </person>
    <person id="pedestrian210" depart="571.00">
        <walk edges="BynPl_2_3 BynPl_1_2"/>
    </person>
    <person id="pedestrian211" depart="571.00">
        <walk edges="BynPl_1_3 BynPl_1_2 BynPl_1_1"/>
    </person>
    <person id="pedestrian212" depart="575.00">
        <walk edges="MalSt_2_1 BynPl_2_3 BynPl_2_2 BynPl_2_1"/>
    </person>
    <person id="pedestrian213" depart="576.00">
        <walk edges="TorPl_2_4 HunSt_2_1"/>
    </person>
    <person id="pedestrian214" depart="576.00">
        <walk edges="GorSq_1_3 GorSq_1_2 BynPl_1_3 BynPl_1_2 BynPl_1_1 TorPl_1_4 GowSt_2_2"/>
    </person>
    <person id="pedestrian215" depart="577.00">
        <walk edges="BynPl_1_1 TorPl_1_4 TorPl_1_3"/>
    </person>
    <person id="pedestrian216" depart="582.00">
        <walk edges="RidGa_1_1 TorPl_2_2 TorPl_2_1 BynPl_2_3"/>
    </person>
    <person id="pedestrian217" depart="588.00">
        <walk edges="BynPl_2_3 MalSt_1_1"/>
    </person>
    <person id="pedestrian218" depart="592.00">
        <walk edges="MalPl_2_1 TorPl_1_4 GowSt_2_2"/>
    </person>
    <person id="pedestrian219" depart="593.00">
        <walk edges="BynPl_1_2 BynPl_1_1 MalPl_2_1"/>
    </person>
    <person id="pedestrian220" depart="593.00">
        <walk edges="MalPl_1_1 TorPl_1_4 TorPl_2_2"/>
    </person>
    <person id="pedestrian221" depart="593.00">
        <walk edges="BynPl_1_2 BynPl_2_2 BynPl_2_1 GorSq_2_2 GorSq_2_1"/>
    </person>
    <person id="pedestrian222" depart="595.00">
        <walk edges="GowSt_2_1 TorPl_2_1 BynPl_2_3"/>
    </person>
    <person id="pedestrian223" depart="597.00">
        <walk edges="GowSt_2_2 GowSt_2_1"/>
    </person>
    <person id="pedestrian224" depart="598.00">
        <walk edges="TorPl_1_2 TorPl_1_3 TorPl_1_4 MalPl_2_1"/>
    </person>
    <person id="pedestrian225" depart="599.00">
        <walk edges="GorSq_1_1 BynPl_1_3 BynPl_1_2 BynPl_1_1 MalPl_2_1"/>
    </person>