<?xml version="1.0" encoding="UTF-8"?>

<!-- generated on 2025-11-16 23:00:55.808421 by randomTrips.py v1_24_0+0000-b72eb3fabc8
<configuration>
    <net-file value="../networks/demo/main.net.xml"/>
    <output-trip-file value="../routes/demo/pedestrian.trips.xml"/>
    <route-file value="../routes/demo/pedestrian.rou.xml"/>
    <pedestrians value="True"/>
    <prefix value="pedestrian"/>
    <random-factor value="3.3544807310969285"/>
    <seed value="46"/>
    <period value="0.8138929291628267"/>
    <binomial value="100"/>
</configuration>
-->

<!-- generated on 2025-11-16 23:00:55 by Eclipse SUMO duarouter Version 1.24.0
<duarouterConfiguration xmlns:xsi="http://www.w3.org/2001/XMLSchema-instance" xsi:noNamespaceSchemaLocation="http://sumo.dlr.de/xsd/duarouterConfiguration.xsd">

    <input>
        <net-file value="../networks/demo/main.net.xml"/>
        <route-files value="../routes/demo/pedestrian.trips.xml"/>
    </input>

    <output>
        <output-file value="../routes/demo/pedestrian.rou.xml"/>
        <alternatives-output value="NUL"/>
    </output>

    <time>
        <begin value="0"/>
        <end value="3600.0"/>
    </time>

    <report>
        <no-warnings value="true"/>
        <ignore-errors value="true"/>
        <no-step-log value="true"/>
    </report>

</duarouterConfiguration>
-->

<routes xmlns:xsi="http://www.w3.org/2001/XMLSchema-instance" xsi:noNamespaceSchemaLocation="http://sumo.dlr.de/xsd/routes_file.xsd">
    <person id="pedestrian0" depart="0.00">
        <walk edges="MalPl_1_1 TorPl_1_4 TorPl_2_2 RidGa_1_1"/>
    </person>
    <person id="pedestrian1" depart="0.00">
        <walk edges="CheMe_2_1 TorPl_1_2 TorPl_2_3 RidGa_2_1"/>
    </person>
    <person id="pedestrian2" depart="3.00">
        <walk edges="MalSt_1_1 BynPl_2_3 BynPl_2_2 BynPl_1_3 GorSq_1_2 GorSq_1_3"/>
    </person>
    <person id="pedestrian3" depart="3.00">
        <walk edges="BynPl_2_1 BynPl_2_2 BynPl_1_1 TorPl_1_4 TorPl_1_3 TorPl_1_2 TorPl_1_1"/>
    </person>
    <person id="pedestrian4" depart="4.00">
        <walk edges="CheMe_2_1 TorPl_1_2 TorPl_1_1"/>
    </person>
    <person id="pedestrian5" depart="5.00">
        <walk edges="BynPl_1_1 BynPl_2_2 BynPl_2_1 GorSq_2_2"/>
    </person>
    <person id="pedestrian6" depart="6.00">
        <walk edges="GowSt_2_1 TorPl_2_2"/>
    </person>
    <person id="pedestrian7" depart="6.00">
        <walk edges="CheMe_2_1 TorPl_1_3 GowSt_2_2"/>
    </person>
    <person id="pedestrian8" depart="7.00">
        <walk edges="GorSq_2_1 GorSq_2_2 BynPl_2_1 BynPl_2_2 BynPl_1_1 TorPl_1_4 TorPl_1_3 TorPl_1_2 HunSt_2_2"/>
    </person>
    <person id="pedestrian9" depart="8.00">
        <walk edges="GowSt_1_1 TorPl_1_4 BynPl_1_1 BynPl_2_2 BynPl_2_1 GorSq_2_2"/>
    </person>
    <person id="pedestrian10" depart="8.00">
        <walk edges="BynPl_1_2 BynPl_1_1 TorPl_1_4 TorPl_1_3 TorPl_1_2 TorPl_1_1"/>
    </person>
    <person id="pedestrian11" depart="9.00">
        <walk edges="GorSq_2_2 BynPl_2_1 BynPl_2_2 BynPl_2_3 TorPl_2_1 TorPl_2_2 RidGa_1_1"/>
    </person>
    <person id="pedestrian12" depart="11.00">
        <walk edges="MalSt_1_1 TorPl_2_1 TorPl_2_2 RidGa_1_1"/>
    </person>
    <person id="pedestrian13" depart="12.00">
        <walk edges="TorPl_2_1 TorPl_1_3 CheMe_1_1"/>
    </person>
    <person id="pedestrian14" depart="12.00">
        <walk edges="BynPl_2_1 BynPl_2_2"/>
    </person>
    <person id="pedestrian15" depart="12.00">
        <walk edges="BynPl_2_1 GorSq_2_2"/>
    </person>
    <person id="pedestrian16" depart="13.00">
        <walk edges="GorSq_2_2 BynPl_2_1 BynPl_2_2 BynPl_1_1 TorPl_1_4 TorPl_1_3 CheMe_2_1"/>
    </person>
    <person id="pedestrian17" depart="15.00">
        <walk edges="GorSq_1_1 BynPl_1_3 BynPl_1_2 BynPl_1_1 TorPl_1_4 TorPl_1_3 CheMe_2_1"/>
    </person>
    <person id="pedestrian18" depart="16.00">
        <walk edges="BynPl_2_1 BynPl_2_2 BynPl_1_1 TorPl_1_4 TorPl_1_3 TorPl_1_2 HunSt_1_1"/>
    </person>
    <person id="pedestrian19" depart="18.00">
        <walk edges="HunSt_1_2 TorPl_2_3 TorPl_2_2 TorPl_1_4 BynPl_1_1 BynPl_1_2 BynPl_1_3 GorSq_1_2 GorSq_1_3"/>
    </person>
    <person id="pedestrian20" depart="18.00">
        <walk edges="TorPl_2_4 TorPl_2_3 TorPl_2_2 TorPl_2_1 MalSt_2_1"/>
    </person>
    <person id="pedestrian21" depart="19.00">
        <walk edges="BynPl_1_3 BynPl_1_2 BynPl_1_1 TorPl_1_4 TorPl_2_2"/>
    </person>
    <person id="pedestrian22" depart="19.00">
        <walk edges="BynPl_1_1"/>
    </person>
    <person id="pedestrian23" depart="19.00">
        <walk edges="GowSt_1_1 TorPl_1_4 MalPl_1_1"/>
    </person>
    <person id="pedestrian24" depart="19.00">
        <walk edges="BynPl_2_2 BynPl_1_1 TorPl_1_4 TorPl_1_3 CheMe_2_1"/>
    </person>
    <person id="pedestrian25" depart="20.00">
        <walk edges="HunSt_2_2 TorPl_2_3 TorPl_2_2 GowSt_1_2"/>
    </person>
    <person id="pedestrian26" depart="22.00">
        <walk edges="MalPl_2_1 BynPl_1_1 BynPl_2_2 BynPl_2_1 GorSq_2_2 GorSq_2_1"/>
    </person>
    <person id="pedestrian27" depart="23.00">
        <walk edges="CheMe_2_1 TorPl_1_3 TorPl_1_4 MalSt_1_1"/>
    </person>
    <person id="pedestrian28" depart="25.00">
        <walk edges="TorPl_1_1 TorPl_1_2 TorPl_1_3 TorPl_1_4 BynPl_1_1 BynPl_2_2"/>
    </person>
    <person id="pedestrian29" depart="25.00">
        <walk edges="MalPl_2_1 TorPl_2_1"/>
    </person>
    <person id="pedestrian30" depart="27.00">
        <walk edges="CheMe_2_1 TorPl_1_3 GowSt_1_2"/>
    </person>
    <person id="pedestrian31" depart="27.00">
        <walk edges="RidGa_2_1 TorPl_2_2 TorPl_2_1"/>
    </person>
    <person id="pedestrian32" depart="29.00">
        <walk edges="GowSt_1_2 TorPl_2_1 BynPl_2_3 BynPl_2_2"/>
    </person>
    <person id="pedestrian33" depart="29.00">
        <walk edges="BynPl_2_3 BynPl_1_2"/>
    </person>
    <person id="pedestrian34" depart="29.00">
        <walk edges="TorPl_1_2 TorPl_1_3 GowSt_1_1"/>
    </person>
    <person id="pedestrian35" depart="30.00">
        <walk edges="BynPl_2_1 BynPl_2_2 BynPl_1_1 TorPl_1_4 TorPl_1_3 CheMe_1_1"/>
    </person>
    <person id="pedestrian36" depart="32.00">
        <walk edges="MalPl_2_1 TorPl_1_4 GowSt_1_1"/>
    </person>
    <person id="pedestrian37" depart="32.00">
        <walk edges="GowSt_1_1 TorPl_1_3 CheMe_2_1"/>
    </person>
    <person id="pedestrian38" depart="33.00">
        <walk edges="TorPl_2_4 TorPl_1_2 TorPl_1_3 TorPl_1_4 BynPl_1_1 BynPl_1_2 BynPl_1_3 GorSq_1_2"/>
    </person>
    <person id="pedestrian39" depart="36.00">
        <walk edges="GorSq_2_3 BynPl_1_3 BynPl_1_2 BynPl_1_1 TorPl_1_4 TorPl_2_2 RidGa_2_1"/>
    </person>
    <person id="pedestrian40" depart="36.00">
        <walk edges="BynPl_1_2 BynPl_1_1 TorPl_1_4 GowSt_1_2"/>
    </person>
    <person id="pedestrian41" depart="37.00">
        <walk edges="GorSq_1_1 BynPl_1_3 BynPl_2_1"/>
    </person>
    <person id="pedestrian42" depart="38.00">
        <walk edges="GorSq_2_1 GorSq_1_2 BynPl_1_3"/>
    </person>
    <person id="pedestrian43" depart="39.00">
        <walk edges="GorSq_2_2 BynPl_2_1 BynPl_2_2 BynPl_2_3 TorPl_2_1 TorPl_2_2"/>
    </person>
    <person id="pedestrian44" depart="40.00">
        <walk edges="GowSt_1_1 TorPl_1_4 BynPl_1_1 BynPl_1_2 BynPl_1_3"/>
    </person>
    <person id="pedestrian45" depart="45.00">
        <walk edges="GorSq_1_1 GorSq_1_2"/>
    </person>
    <person id="pedestrian46" depart="45.00">
        <walk edges="GowSt_2_2 TorPl_1_4 MalPl_1_1"/>
    </person>
    <person id="pedestrian47" depart="47.00">
        <walk edges="BynPl_1_1 BynPl_1_2 BynPl_1_3 GorSq_1_1"/>
    </person>
    <person id="pedestrian48" depart="51.00">
        <walk edges="BynPl_2_3 TorPl_2_1 TorPl_2_2 TorPl_2_3 TorPl_2_4"/>
    </person>
    <person id="pedestrian49" depart="51.00">
        <walk edges="HunSt_2_1 TorPl_2_3 TorPl_2_2 TorPl_2_1 BynPl_2_3 BynPl_2_2 BynPl_2_1 GorSq_2_2 GorSq_2_1"/>
    </person>
    <person id="pedestrian50" depart="53.00">
        <walk edges="HunSt_1_2 TorPl_2_3 TorPl_2_2 TorPl_1_4 BynPl_1_1 BynPl_1_2 BynPl_1_3 GorSq_2_3"/>
    </person>
    <person id="pedestrian51" depart="53.00">
        <walk edges="TorPl_2_3 HunSt_1_1"/>
    </person>
    <person id="pedestrian52" depart="60.00">
        <walk edges="BynPl_2_3 MalPl_1_1"/>
    </person>
    <person id="pedestrian53" depart="60.00">
        <walk edges="BynPl_1_1 BynPl_1_2 BynPl_1_3 GorSq_1_1"/>
    </person>
    <person id="pedestrian54" depart="60.00">
        <walk edges="BynPl_2_2 BynPl_1_1 TorPl_1_4 GowSt_1_1"/>
    </person>
    <person id="pedestrian55" depart="61.00">
        <walk edges="GowSt_2_2 TorPl_1_4 BynPl_1_1 BynPl_1_2"/>
    </person>
    <person id="pedestrian56" depart="61.00">
        <walk edges="GorSq_2_1 GorSq_2_2 BynPl_2_1 BynPl_2_2 BynPl_1_1 TorPl_1_4 TorPl_1_3 CheMe_1_1"/>
    </person>
    <person id="pedestrian57" depart="63.00">
        <walk edges="BynPl_2_3 TorPl_1_4"/>
    </person>
    <person id="pedestrian58" depart="63.00">
        <walk edges="BynPl_1_3 BynPl_1_2 BynPl_1_1 TorPl_1_4 TorPl_1_3 TorPl_1_2 TorPl_1_1"/>
    </person>
    <person id="pedestrian59" depart="63.00">
        <walk edges="TorPl_2_2 TorPl_1_3 CheMe_1_1"/>
    </person>
    <person id="pedestrian60" depart="64.00">
        <walk edges="HunSt_1_2 TorPl_2_3 TorPl_2_2 GowSt_1_2"/>
    </person>
    <person id="pedestrian61" depart="65.00">
        <walk edges="BynPl_2_2 BynPl_2_3 TorPl_2_1"/>
    </person>
    <person id="pedestrian62" depart="65.00">
        <walk edges="TorPl_2_3 TorPl_2_2 TorPl_1_4 BynPl_1_1 BynPl_1_2 BynPl_1_3 GorSq_2_3"/>
    </person>
    <person id="pedestrian63" depart="67.00">
        <walk edges="TorPl_1_1 TorPl_1_2 TorPl_1_3"/>
    </person>
    <person id="pedestrian64" depart="70.00">
        <walk edges="RidGa_2_1 TorPl_2_3 TorPl_1_2 CheMe_1_1"/>
    </person>
    <person id="pedestrian65" depart="70.00">
        <walk edges="BynPl_1_1 TorPl_1_4 TorPl_1_3 TorPl_1_2 TorPl_1_1"/>
    </person>
    <person id="pedestrian66" depart="71.00">
        <walk edges="TorPl_1_1 TorPl_2_3 TorPl_2_2 TorPl_2_1"/>
    </person>
    <person id="pedestrian67" depart="72.00">
        <walk edges="BynPl_1_3 BynPl_1_2 BynPl_1_1 TorPl_1_4 GowSt_1_1"/>
    </person>
    <person id="pedestrian68" depart="73.00">
        <walk edges="MalPl_1_1 TorPl_1_4 GowSt_2_2"/>
    </person>
    <person id="pedestrian69" depart="73.00">
        <walk edges="GowSt_2_1 TorPl_2_2 TorPl_2_3 TorPl_1_1"/>
    </person>
    <person id="pedestrian70" depart="74.00">
        <walk edges="CheMe_1_1 TorPl_1_3 GowSt_2_1"/>
    </person>
    <person id="pedestrian71" depart="75.00">
        <walk edges="BynPl_2_3 TorPl_1_4 GowSt_2_2"/>
    </person>
    <person id="pedestrian72" depart="75.00">
        <walk edges="BynPl_1_2 BynPl_2_2 BynPl_2_1"/>
    </person>
    <person id="pedestrian73" depart="76.00">
        <walk edges="HunSt_1_1 TorPl_1_2 CheMe_1_1"/>
    </person>
    <person id="pedestrian74" depart="77.00">
        <walk edges="GowSt_1_1 TorPl_1_3 CheMe_1_1"/>
    </person>
    <person id="pedestrian75" depart="77.00">
        <walk edges="TorPl_1_3 TorPl_1_2 TorPl_2_3"/>
    </person>
    <person id="pedestrian76" depart="77.00">
        <walk edges="GorSq_2_3 GorSq_1_1"/>
    </person>
    <person id="pedestrian77" depart="77.00">
        <walk edges="MalSt_2_1 MalPl_2_1"/>
    </person>
    <person id="pedestrian78" depart="78.00">
        <walk edges="MalSt_2_1 BynPl_2_3 BynPl_2_2 BynPl_1_3"/>
    </person>
    <person id="pedestrian79" depart="79.00">
        <walk edges="TorPl_2_4 TorPl_1_2 CheMe_1_1"/>
    </person>
    <person id="pedestrian80" depart="81.00">
        <walk edges="BynPl_1_1 BynPl_1_2"/>
    </person>
    <person id="pedestrian81" depart="83.00">
        <walk edges="HunSt_2_1 TorPl_1_2 CheMe_1_1"/>
    </person>
    <person id="pedestrian82" depart="84.00">
        <walk edges="GorSq_2_1 GorSq_2_2 BynPl_2_1 BynPl_2_2 BynPl_2_3 TorPl_2_1 TorPl_2_2 RidGa_2_1"/>
    </person>
    <person id="pedestrian83" depart="84.00">
        <walk edges="TorPl_1_1 TorPl_1_2 TorPl_1_3 TorPl_1_4 BynPl_1_1 BynPl_2_2 BynPl_2_1"/>
    </person>
    <person id="pedestrian84" depart="85.00">
        <walk edges="HunSt_2_1 HunSt_1_1"/>
    </person>
    <person id="pedestrian85" depart="86.00">
        <walk edges="MalPl_2_1 TorPl_1_4 GowSt_1_1"/>
    </person>
    <person id="pedestrian86" depart="87.00">
        <walk edges="GorSq_2_2 BynPl_2_1 BynPl_2_2 BynPl_2_3 TorPl_2_1 TorPl_2_2 RidGa_2_1"/>
    </person>
    <person id="pedestrian87" depart="89.00">
        <walk edges="GowSt_2_1 TorPl_1_3 CheMe_2_1"/>
    </person>
    <person id="pedestrian88" depart="90.00">
        <walk edges="GowSt_1_2 TorPl_1_4 BynPl_1_1 BynPl_1_2 BynPl_1_3 GorSq_1_1"/>
    </person>
    <person id="pedestrian89" depart="93.00">
        <walk edges="GowSt_1_1 TorPl_1_4 BynPl_1_1 BynPl_1_2 BynPl_1_3 GorSq_1_1"/>
    </person>
    <person id="pedestrian90" depart="95.00">
        <walk edges="GorSq_2_2 BynPl_2_1 BynPl_2_2 BynPl_1_1 TorPl_1_4 TorPl_1_3 TorPl_1_2 TorPl_1_1"/>
    </person>
    <person id="pedestrian91" depart="96.00">
        <walk edges="BynPl_2_1 BynPl_1_3 GorSq_1_1"/>
    </person>
    <person id="pedestrian92" depart="96.00">
        <walk edges="HunSt_2_1 TorPl_1_2 CheMe_2_1"/>
    </person>
    <person id="pedestrian93" depart="98.00">
        <walk edges="BynPl_1_1 TorPl_1_4 TorPl_1_3 CheMe_2_1"/>
    </person>
    <person id="pedestrian94" depart="99.00">
        <walk edges="RidGa_1_1 TorPl_2_3 TorPl_1_2 CheMe_2_1"/>
    </person>
    <person id="pedestrian95" depart="100.00">
        <walk edges="GowSt_2_2 TorPl_1_4 BynPl_1_1 BynPl_2_2 BynPl_2_1"/>
    </person>
    <person id="pedestrian96" depart="102.00">
        <walk edges="GorSq_2_1 GorSq_2_2 BynPl_2_1 BynPl_2_2 BynPl_1_1 TorPl_1_4 TorPl_1_3 CheMe_2_1"/>
    </person>
    <person id="pedestrian97" depart="103.00">
        <walk edges="CheMe_2_1 TorPl_1_3"/>
    </person>
    <person id="pedestrian98" depart="105.00">
        <walk edges="TorPl_1_1 HunSt_2_2"/>
    </person>
    <person id="pedestrian99" depart="105.00">
        <walk edges="HunSt_1_2 TorPl_2_3 TorPl_2_2 TorPl_1_4 BynPl_1_1"/>
    </person>
    <person id="pedestrian100" depart="107.00">
        <walk edges="GorSq_2_2 BynPl_2_1 BynPl_2_2 BynPl_1_1 TorPl_1_4 GowSt_1_1"/>
    </person>
    <person id="pedestrian101" depart="108.00">
        <walk edges="MalPl_1_1 TorPl_1_4 TorPl_1_3 CheMe_2_1"/>
    </person>
    <person id="pedestrian102" depart="108.00">
        <walk edges="GowSt_2_1 TorPl_2_2"/>
    </person>
    <person id="pedestrian103" depart="110.00">
        <walk edges="TorPl_1_2 TorPl_2_4"/>
    </person>
    <person id="pedestrian104" depart="110.00">
        <walk edges="TorPl_1_2 TorPl_1_3 TorPl_1_4 MalSt_1_1"/>
    </person>
    <person id="pedestrian105" depart="110.00">
        <walk edges="TorPl_1_3 TorPl_1_2 HunSt_2_2"/>
    </person>
    <person id="pedestrian106" depart="111.00">
        <walk edges="TorPl_1_2 TorPl_2_4"/>
    </person>
    <person id="pedestrian107" depart="112.00">
        <walk edges="GowSt_2_1 TorPl_2_2 TorPl_2_3 HunSt_1_2"/>
    </person>
    <person id="pedestrian108" depart="112.00">
        <walk edges="CheMe_2_1 TorPl_1_2 TorPl_2_4"/>
    </person>
    <person id="pedestrian109" depart="112.00">
        <walk edges="TorPl_1_3 TorPl_1_4 MalPl_1_1"/>
    </person>
    <person id="pedestrian110" depart="113.00">
        <walk edges="BynPl_2_3 TorPl_2_1 GowSt_2_1"/>
    </person>
    <person id="pedestrian111" depart="113.00">
        <walk edges="GowSt_2_2 TorPl_1_4 BynPl_1_1 BynPl_2_2 BynPl_2_1 GorSq_2_2"/>
    </person>
    <person id="pedestrian112" depart="114.00">
        <walk edges="MalSt_1_1 TorPl_1_4 TorPl_1_3 TorPl_1_2 HunSt_2_2"/>
    </person>
    <person id="pedestrian113" depart="115.00">
        <walk edges="GowSt_1_1 TorPl_1_4 BynPl_1_1 BynPl_2_2 BynPl_2_1 GorSq_2_2"/>
    </person>
    <person id="pedestrian114" depart="116.00">
        <walk edges="TorPl_1_3 TorPl_1_4 BynPl_1_1 BynPl_1_2 BynPl_1_3 GorSq_1_1"/>
    </person>
    <person id="pedestrian115" depart="116.00">
        <walk edges="HunSt_2_2 TorPl_1_2 TorPl_1_3 TorPl_1_4 BynPl_1_1"/>
    </person>
    <person id="pedestrian116" depart="116.00">
        <walk edges="TorPl_1_1 TorPl_1_2 CheMe_2_1"/>
    </person>
    <person id="pedestrian117" depart="117.00">
        <walk edges="GorSq_2_1 GorSq_2_2 BynPl_2_1 BynPl_2_2 BynPl_1_1 TorPl_1_4 GowSt_1_1"/>
    </person>
    <person id="pedestrian118" depart="117.00">
        <walk edges="TorPl_2_3 TorPl_2_2 GowSt_2_1"/>
    </person>
    <person id="pedestrian119" depart="119.00">
        <walk edges="BynPl_1_2 BynPl_1_1 TorPl_1_4 TorPl_1_3 TorPl_1_2 HunSt_1_1"/>
    </person>
    <person id="pedestrian120" depart="121.00">
        <walk edges="GowSt_1_1 TorPl_1_4 BynPl_1_1 BynPl_1_2 BynPl_1_3 GorSq_2_3"/>
    </person>
    <person id="pedestrian121" depart="122.00">
        <walk edges="HunSt_2_1 TorPl_1_2 CheMe_1_1"/>
    </person>
    <person id="pedestrian122" depart="122.00">
        <walk edges="RidGa_2_1 TorPl_2_2 GowSt_1_1"/>
    </person>
    <person id="pedestrian123" depart="123.00">
        <walk edges="BynPl_1_2 BynPl_1_1 MalPl_1_1"/>
    </person>
    <person id="pedestrian124" depart="124.00">
        <walk edges="GorSq_2_1 GorSq_2_2 BynPl_2_1 BynPl_2_2 BynPl_2_3 TorPl_2_1 TorPl_2_2 RidGa_1_1"/>
    </person>
    <person id="pedestrian125" depart="125.00">
        <walk edges="RidGa_1_1 TorPl_2_3 TorPl_1_2 CheMe_2_1"/>
    </person>
    <person id="pedestrian126" depart="126.00">
        <walk edges="BynPl_2_1 BynPl_2_2 BynPl_2_3"/>
    </person>
    <person id="pedestrian127" depart="126.00">
        <walk edges="BynPl_1_1 TorPl_1_4 TorPl_1_3 CheMe_2_1"/>
    </person>
    <person id="pedestrian128" depart="126.00">
        <walk edges="GowSt_2_1 TorPl_1_4 BynPl_1_1 BynPl_1_2 BynPl_1_3 GorSq_1_2"/>
    </person>
    <person id="pedestrian129" depart="127.00">
        <walk edges="BynPl_2_1 GorSq_2_2 GorSq_2_1"/>
    </person>
    <person id="pedestrian130" depart="127.00">
        <walk edges="GorSq_2_2 BynPl_2_1 BynPl_2_2 BynPl_2_3 TorPl_2_1 TorPl_2_2 TorPl_2_3 TorPl_2_4"/>
    </person>
    <person id="pedestrian131" depart="127.00">
        <walk edges="BynPl_2_3 BynPl_2_2 BynPl_1_3 GorSq_1_2 GorSq_1_3"/>
    </person>
    <person id="pedestrian132" depart="129.00">
        <walk edges="MalSt_2_1 TorPl_2_1 TorPl_1_3 CheMe_2_1"/>
    </person>
    <person id="pedestrian133" depart="131.00">
        <walk edges="BynPl_1_3 BynPl_1_2 BynPl_1_1 MalPl_2_1"/>
    </person>
    <person id="pedestrian134" depart="131.00">
        <walk edges="BynPl_1_2 BynPl_1_1 TorPl_1_4 GowSt_2_1"/>
    </person>
    <person id="pedestrian135" depart="131.00">
        <walk edges="GowSt_1_2 TorPl_2_2 TorPl_2_3 TorPl_2_4"/>
    </person>
    <person id="pedestrian136" depart="132.00">
        <walk edges="GowSt_2_1 TorPl_1_4 MalPl_1_1"/>
    </person>
    <person id="pedestrian137" depart="132.00">
        <walk edges="GorSq_1_3 GorSq_1_2 BynPl_1_3 BynPl_2_2"/>
    </person>
    <person id="pedestrian138" depart="133.00">
        <walk edges="TorPl_1_2 TorPl_1_3"/>
    </person>
    <person id="pedestrian139" depart="133.00">
        <walk edges="BynPl_1_3 GorSq_1_2 GorSq_1_3"/>
    </person>
    <person id="pedestrian140" depart="134.00">
        <walk edges="BynPl_1_2 BynPl_2_3 MalSt_1_1"/>
    </person>
    <person id="pedestrian141" depart="134.00">
        <walk edges="CheMe_1_1 TorPl_1_3 GowSt_2_2"/>
    </person>
    <person id="pedestrian142" depart="136.00">
        <walk edges="GowSt_2_1 TorPl_2_2"/>
    </person>
    <person id="pedestrian143" depart="136.00">
        <walk edges="GorSq_2_1 GorSq_2_2 BynPl_2_1"/>
    </person>
    <person id="pedestrian144" depart="136.00">
        <walk edges="HunSt_1_2 TorPl_2_3 TorPl_2_2 TorPl_2_1 MalSt_2_1"/>
    </person>
    <person id="pedestrian145" depart="136.00">
        <walk edges="GorSq_1_1 BynPl_1_3 BynPl_1_2 BynPl_1_1 TorPl_1_4 TorPl_2_2 TorPl_2_3"/>
    </person>
    <person id="pedestrian146" depart="136.00">
        <walk edges="CheMe_2_1 TorPl_1_3"/>
    </person>
    <person id="pedestrian147" depart="137.00">
        <walk edges="BynPl_2_1 BynPl_2_2 BynPl_1_1"/>
    </person>
    <person id="pedestrian148" depart="137.00">
        <walk edges="TorPl_2_3 TorPl_2_2 TorPl_1_4 BynPl_1_1"/>
    </person>
    <person id="pedestrian149" depart="137.00">
        <walk edges="TorPl_2_4 TorPl_2_3 TorPl_2_2 TorPl_2_1 MalSt_1_1"/>
    </person>
    <person id="pedestrian150" depart="138.00">
        <walk edges="GowSt_1_2 TorPl_1_3"/>
    </person>
    <person id="pedestrian151" depart="139.00">
        <walk edges="MalPl_1_1 TorPl_1_4 TorPl_1_3 CheMe_2_1"/>
    </person>
    <person id="pedestrian152" depart="139.00">
        <walk edges="CheMe_2_1 TorPl_1_3 TorPl_1_4 BynPl_1_1 BynPl_1_2 BynPl_1_3 GorSq_1_2 GorSq_1_3"/>
    </person>
    <person id="pedestrian153" depart="139.00">
        <walk edges="CheMe_2_1 TorPl_1_3 TorPl_1_4 BynPl_2_3"/>
    </person>
    <person id="pedestrian154" depart="140.00">
        <walk edges="TorPl_1_3 TorPl_1_2 HunSt_1_1"/>
    </person>
    <person id="pedestrian155" depart="141.00">
        <walk edges="GorSq_2_3 GorSq_1_2"/>
    </person>
    <person id="pedestrian156" depart="141.00">
        <walk edges="TorPl_1_1 HunSt_1_1"/>
    </person>
    <person id="pedestrian157" depart="143.00">
        <walk edges="GorSq_2_1 GorSq_2_2 BynPl_2_1 BynPl_2_2 BynPl_2_3 MalSt_1_1"/>
    </person>
    <person id="pedestrian158" depart="144.00">
        <walk edges="BynPl_1_3 GorSq_1_2 GorSq_2_2"/>
    </person>
    <person id="pedestrian159" depart="144.00">
        <walk edges="HunSt_1_1 HunSt_2_2"/>
    </person>
    <person id="pedestrian160" depart="145.00">
        <walk edges="CheMe_2_1 TorPl_1_2 HunSt_1_1"/>
    </person>
    <person id="pedestrian161" depart="147.00">
        <walk edges="HunSt_1_2 TorPl_2_3 TorPl_2_2 TorPl_1_4 MalPl_1_1"/>
    </person>
    <person id="pedestrian162" depart="152.00">
        <walk edges="TorPl_2_1 BynPl_2_3 BynPl_2_2 BynPl_2_1 GorSq_2_2 GorSq_2_1"/>
    </person>
    <person id="pedestrian163" depart="152.00">
        <walk edges="TorPl_1_2 TorPl_1_3 TorPl_1_4 BynPl_1_1 BynPl_1_2 BynPl_1_3 GorSq_1_1"/>
    </person>
    <person id="pedestrian164" depart="153.00">
        <walk edges="BynPl_2_1 BynPl_2_2 BynPl_1_1 TorPl_1_4 TorPl_1_3 CheMe_2_1"/>
    </person>
    <person id="pedestrian165" depart="154.00">
        <walk edges="TorPl_2_2 TorPl_1_3"/>
    </person>
    <person id="pedestrian166" depart="154.00">
        <walk edges="GorSq_2_1 GorSq_2_2 BynPl_2_1 BynPl_2_2 BynPl_2_3"/>
    </person>
    <person id="pedestrian167" depart="155.00">
        <walk edges="GowSt_1_1 TorPl_1_4 BynPl_1_1 BynPl_1_2 BynPl_1_3"/>
    </person>
    <person id="pedestrian168" depart="155.00">
        <walk edges="GorSq_1_1 BynPl_1_3 BynPl_1_2 BynPl_1_1 TorPl_1_4 TorPl_1_3"/>
    </person>
    <person id="pedestrian169" depart="155.00">
        <walk edges="BynPl_1_3 BynPl_2_2 BynPl_2_3 TorPl_2_1"/>
    </person>
    <person id="pedestrian170" depart="155.00">
        <walk edges="MalSt_1_1 TorPl_2_1"/>
    </person>
    <person id="pedestrian171" depart="156.00">
        <walk edges="RidGa_2_1 TorPl_2_2 TorPl_2_1 BynPl_2_3 BynPl_2_2"/>
    </person>
    <person id="pedestrian172" depart="157.00">
        <walk edges="GowSt_2_1 TorPl_1_4"/>
    </person>
    <person id="pedestrian173" depart="158.00">
        <walk edges="GorSq_2_1 GorSq_2_2 BynPl_2_1 BynPl_2_2 BynPl_2_3 TorPl_2_1"/>
    </person>
    <person id="pedestrian174" depart="160.00">
        <walk edges="GowSt_2_1 TorPl_2_1 MalSt_2_1"/>
    </person>
    <person id="pedestrian175" depart="161.00">
        <walk edges="BynPl_2_1 BynPl_2_2 BynPl_1_1 MalPl_1_1"/>
    </person>
    <person id="pedestrian176" depart="162.00">
        <walk edges="CheMe_2_1 TorPl_1_2 HunSt_1_1"/>
    </person>
    <person id="pedestrian177" depart="162.00">
        <walk edges="MalSt_2_1 BynPl_2_3 BynPl_2_2 BynPl_2_1"/>
    </person>
    <person id="pedestrian178" depart="164.00">
        <walk edges="CheMe_2_1 TorPl_1_2 TorPl_2_3 RidGa_2_1"/>
    </person>
    <person id="pedestrian179" depart="164.00">
        <walk edges="GowSt_2_1 TorPl_2_2 TorPl_2_3 HunSt_2_2"/>
    </person>
    <person id="pedestrian180" depart="165.00">
        <walk edges="HunSt_1_1 TorPl_2_4"/>
    </person>
    <person id="pedestrian181" depart="165.00">
        <walk edges="TorPl_2_3 TorPl_2_2 TorPl_1_4 BynPl_1_1 BynPl_1_2 BynPl_1_3"/>
    </person>
    <person id="pedestrian182" depart="166.00">
        <walk edges="HunSt_1_2 TorPl_2_3 TorPl_2_2 TorPl_2_1 BynPl_2_3 BynPl_2_2 BynPl_2_1 GorSq_2_2 GorSq_2_1"/>
    </person>
    <person id="pedestrian183" depart="166.00">
        <walk edges="TorPl_2_4 TorPl_2_3 TorPl_2_2 TorPl_2_1 BynPl_2_3"/>
    </person>
    <person id="pedestrian184" depart="169.00">
        <walk edges="TorPl_1_1 TorPl_1_2"/>
    </person>
    <person id="pedestrian185" depart="169.00">
        <walk edges="HunSt_2_2 TorPl_1_2 TorPl_1_3"/>
    </person>
    <person id="pedestrian186" depart="169.00">
        <walk edges="HunSt_1_1 HunSt_2_2"/>
    </person>
    <person id="pedestrian187" depart="170.00">
        <walk edges="RidGa_2_1 TorPl_2_2 TorPl_2_1 BynPl_2_3"/>
    </person>
    <person id="pedestrian188" depart="171.00">
        <walk edges="TorPl_2_4 TorPl_2_3 RidGa_1_1"/>
    </person>
    <person id="pedestrian189" depart="171.00">
        <walk edges="GorSq_2_1 GorSq_2_2 BynPl_2_1 BynPl_2_2 BynPl_1_1 MalPl_2_1"/>
    </person>
    <person id="pedestrian190" depart="171.00">
        <walk edges="TorPl_2_4 TorPl_1_2 TorPl_1_3 TorPl_1_4 BynPl_1_1 BynPl_1_2"/>
    </person>
    <person id="pedestrian191" depart="171.00">
        <walk edges="HunSt_1_1 TorPl_2_3 TorPl_2_2 TorPl_2_1 MalSt_2_1"/>
    </person>
    <person id="pedestrian192" depart="172.00">
        <walk edges="MalPl_1_1 BynPl_1_1 BynPl_2_2 BynPl_2_1"/>
    </person>
    <person id="pedestrian193" depart="174.00">
        <walk edges="TorPl_2_2 TorPl_1_4 BynPl_1_1 BynPl_1_2 BynPl_1_3 GorSq_1_1"/>
    </person>
    <person id="pedestrian194" depart="175.00">
        <walk edges="BynPl_2_2 BynPl_2_1 GorSq_2_2"/>
    </person>
    <person id="pedestrian195" depart="176.00">
        <walk edges="TorPl_1_2 CheMe_2_1"/>
    </person>
    <person id="pedestrian196" depart="176.00">
        <walk edges="BynPl_1_1 TorPl_1_4 TorPl_2_2"/>
    </person>
    <person id="pedestrian197" depart="178.00">
        <walk edges="BynPl_1_2 BynPl_1_1 TorPl_1_4 TorPl_1_3 TorPl_1_2 TorPl_1_1"/>
    </person>
    <person id="pedestrian198" depart="179.00">
        <walk edges="HunSt_2_2 TorPl_1_2 TorPl_1_3 TorPl_1_4 BynPl_1_1 BynPl_1_2 BynPl_1_3 GorSq_1_2 GorSq_1_3"/>
    </person>
    <person id="pedestrian199" depart="179.00">
        <walk edges="BynPl_2_1 BynPl_2_2 BynPl_2_3 TorPl_2_1 TorPl_2_2 RidGa_2_1"/>
    </person>
    <person id="pedestrian200" depart="181.00">
        <walk edges="HunSt_1_2 HunSt_2_2"/>
    </person>
    <person id="pedestrian201" depart="181.00">
        <walk edges="GowSt_1_1 TorPl_1_3 TorPl_1_2 TorPl_2_4"/>
    </person>
    <person id="pedestrian202" depart="182.00">
        <walk edges="RidGa_1_1 TorPl_2_3 HunSt_2_2"/>
    </person>
    <person id="pedestrian203" depart="183.00">
        <walk edges="HunSt_1_2 TorPl_1_1"/>
    </person>
    <person id="pedestrian204" depart="184.00">
        <walk edges="BynPl_2_3 TorPl_1_4 TorPl_1_3 CheMe_2_1"/>
    </person>
    <person id="pedestrian205" depart="185.00">
        <walk edges="HunSt_1_2 TorPl_2_3 TorPl_2_2 TorPl_2_1 BynPl_2_3 BynPl_2_2"/>
    </person>
    <person id="pedestrian206" depart="185.00">
        <walk edges="TorPl_1_2 TorPl_1_3 TorPl_1_4 BynPl_1_1 BynPl_2_2 BynPl_2_1"/>
    </person>
    <person id="pedestrian207" depart="186.00">
        <walk edges="GorSq_2_1 GorSq_1_2 GorSq_1_1"/>
    </person>
    <person id="pedestrian208" depart="187.00">
        <walk edges="CheMe_2_1 TorPl_1_3 TorPl_2_2"/>
    </person>
    <person id="pedestrian209" depart="189.00">
        <walk edges="TorPl_2_3 TorPl_2_2 GowSt_1_1"/>
    </person>
    <person id="pedestrian210" depart="193.00">
        <walk edges="CheMe_2_1 TorPl_1_3 TorPl_1_4 BynPl_2_3"/>
    </person>
    <person id="pedestrian211" depart="193.00">
        <walk edges="MalPl_1_1 BynPl_1_1 BynPl_1_2 BynPl_1_3"/>
    </person>
    <person id="pedestrian212" depart="194.00">
        <walk edges="GorSq_2_2 BynPl_2_1 BynPl_2_2 BynPl_2_3 MalSt_2_1"/>
    </person>
    <person id="pedestrian213" depart="194.00">
        <walk edges="GowSt_2_1 TorPl_1_4 BynPl_1_1 BynPl_1_2 BynPl_1_3 GorSq_2_3"/>
    </person>
    <person id="pedestrian214" depart="195.00">
        <walk edges="MalPl_1_1 BynPl_1_1 BynPl_1_2 BynPl_1_3"/>
    </person>
    <person id="pedestrian215" depart="195.00">
        <walk edges="MalSt_2_1 TorPl_2_1"/>
    </person>
    <person id="pedestrian216" depart="196.00">
        <walk edges="TorPl_1_2 TorPl_1_3 TorPl_1_4 BynPl_1_1 BynPl_1_2 BynPl_1_3"/>
    </person>
    <person id="pedestrian217" depart="197.00">
        <walk edges="TorPl_2_4 TorPl_2_3"/>
    </person>
    <person id="pedestrian218" depart="197.00">