<?xml version="1.0" encoding="UTF-8"?>

<!-- generated on 2025-11-24 15:00:57.115590 by Eclipse SUMO randomTrips.py UNKNOWN
<configuration>
    <net-file value="../networks/demo/main.net.xml"/>
    <output-trip-file value="../routes/demo/106/pedestrian.trips.xml"/>
    <route-file value="../routes/demo/106/pedestrian.rou.xml"/>
    <pedestrians value="True"/>
    <prefix value="pedestrian"/>
    <seed value="106"/>
    <period value="5.0"/>
    <binomial value="100"/>
</configuration>
-->

<!-- generated on 2025-11-24T15:00:57.103019+00:00 by Eclipse SUMO duarouter 1.25.0
<duarouterConfiguration xmlns:xsi="http://www.w3.org/2001/XMLSchema-instance" xsi:noNamespaceSchemaLocation="http://sumo.dlr.de/xsd/duarouterConfiguration.xsd">

    <input>
        <net-file value="../networks/demo/main.net.xml"/>
        <route-files value="../routes/demo/106/pedestrian.trips.xml"/>
    </input>

    <output>
        <output-file value="../routes/demo/106/pedestrian.rou.xml"/>
        <alternatives-output value="NUL"/>
    </output>

    <time>
        <begin value="0"/>
        <end value="3600.0"/>
    </time>

    <report>
        <no-warnings value="true"/>
        <ignore-errors value="true"/>
        <no-step-log value="true"/>
    </report>

</duarouterConfiguration>
-->

<routes xmlns:xsi="http://www.w3.org/2001/XMLSchema-instance" xsi:noNamespaceSchemaLocation="http://sumo.dlr.de/xsd/routes_file.xsd">
    <person id="pedestrian0" depart="8.00">
        <walk edges="TorPl_2_4 TorPl_2_3 TorPl_2_2 TorPl_2_1 MalSt_2_1"/>
    </person>
    <person id="pedestrian1" depart="15.00">
        <walk edges="GorSq_2_1 GorSq_2_2 BynPl_2_1 BynPl_2_2 BynPl_2_3 TorPl_2_1 TorPl_2_2 RidGa_2_1"/>
    </person>
    <person id="pedestrian2" depart="20.00">
        <walk edges="GorSq_1_2 BynPl_1_3 BynPl_1_2 BynPl_1_1 TorPl_1_4 TorPl_1_3 TorPl_1_2 TorPl_2_4"/>
    </person>
    <person id="pedestrian3" depart="23.00">
        <walk edges="BynPl_2_1 BynPl_2_2 BynPl_2_3 TorPl_2_1 GowSt_2_1"/>
    </person>
    <person id="pedestrian4" depart="28.00">
        <walk edges="HunSt_2_2 TorPl_2_3 TorPl_2_2 GowSt_1_2"/>
    </person>
    <person id="pedestrian5" depart="48.00">
        <walk edges="BynPl_1_1 TorPl_1_4 TorPl_1_3 CheMe_2_1"/>
    </person>
    <person id="pedestrian6" depart="54.00">
        <walk edges="BynPl_2_1 BynPl_2_2 BynPl_2_3 TorPl_2_1 TorPl_2_2 TorPl_2_3 HunSt_2_1"/>
    </person>
    <person id="pedestrian7" depart="57.00">
        <walk edges="HunSt_1_1 TorPl_1_2 TorPl_1_3 TorPl_1_4 BynPl_1_1 BynPl_2_2 BynPl_2_1 GorSq_2_2 GorSq_2_1"/>
    </person>
    <person id="pedestrian8" depart="61.00">
        <walk edges="TorPl_1_1 TorPl_2_3 RidGa_2_1"/>
    </person>
    <person id="pedestrian9" depart="62.00">
        <walk edges="GorSq_2_1 GorSq_2_2 BynPl_2_1 BynPl_2_2 BynPl_1_1 TorPl_1_4 TorPl_1_3 TorPl_1_2 HunSt_1_1"/>
    </person>
    <person id="pedestrian10" depart="68.00">
        <walk edges="TorPl_1_3 TorPl_1_4 BynPl_1_1 BynPl_2_2 BynPl_2_1"/>
    </person>
    <person id="pedestrian11" depart="69.00">
        <walk edges="MalPl_2_1 TorPl_1_4 GowSt_1_2"/>
    </person>
    <person id="pedestrian12" depart="78.00">
        <walk edges="BynPl_2_3 BynPl_1_2"/>
    </person>
    <person id="pedestrian13" depart="82.00">
        <walk edges="MalSt_2_1 TorPl_2_1 GowSt_2_1"/>
    </person>
    <person id="pedestrian14" depart="85.00">
        <walk edges="BynPl_1_1 BynPl_1_2 BynPl_1_3 GorSq_1_2 GorSq_1_3"/>
    </person>
    <person id="pedestrian15" depart="86.00">
        <walk edges="TorPl_1_3 TorPl_1_4 BynPl_1_1 BynPl_2_2"/>
    </person>
    <person id="pedestrian16" depart="90.00">
        <walk edges="TorPl_2_1 MalPl_1_1"/>
    </person>
    <person id="pedestrian17" depart="91.00">
        <walk edges="BynPl_1_2 BynPl_1_1 TorPl_1_4 TorPl_1_3 TorPl_1_2 HunSt_2_1"/>
    </person>
    <person id="pedestrian18" depart="98.00">
        <walk edges="CheMe_1_1 TorPl_1_3 TorPl_1_4 BynPl_1_1 BynPl_1_2"/>
    </person>
    <person id="pedestrian19" depart="105.00">
        <walk edges="GorSq_2_3 BynPl_1_3 BynPl_1_2 BynPl_1_1 TorPl_1_4 TorPl_1_3 TorPl_1_2 TorPl_2_4"/>
    </person>
    <person id="pedestrian20" depart="105.00">
        <walk edges="TorPl_2_1 TorPl_2_2 TorPl_2_3 TorPl_2_4"/>
    </person>
    <person id="pedestrian21" depart="107.00">
        <walk edges="TorPl_2_2 TorPl_1_4 MalPl_2_1"/>
    </person>
    <person id="pedestrian22" depart="114.00">
        <walk edges="CheMe_1_1 TorPl_1_3 TorPl_1_4 BynPl_1_1 BynPl_2_2 BynPl_2_1"/>
    </person>
    <person id="pedestrian23" depart="114.00">
        <walk edges="GorSq_2_2 BynPl_2_1 BynPl_2_2 BynPl_2_3 TorPl_2_1"/>
    </person>
    <person id="pedestrian24" depart="115.00">
        <walk edges="TorPl_1_3 GowSt_2_1"/>
    </person>
    <person id="pedestrian25" depart="122.00">
        <walk edges="TorPl_2_2 GowSt_2_1"/>
    </person>
    <person id="pedestrian26" depart="127.00">
        <walk edges="GorSq_1_2 GorSq_1_3"/>
    </person>
    <person id="pedestrian27" depart="133.00">
        <walk edges="GorSq_1_3 GorSq_1_2 BynPl_1_3 BynPl_2_2 BynPl_2_3 MalSt_2_1"/>
    </person>
    <person id="pedestrian28" depart="134.00">
        <walk edges="BynPl_2_3 MalPl_2_1"/>
    </person>
    <person id="pedestrian29" depart="139.00">
        <walk edges="GowSt_1_2 TorPl_2_2 RidGa_1_1"/>
    </person>
    <person id="pedestrian30" depart="147.00">
        <walk edges="TorPl_2_1 GowSt_2_2"/>
    </person>
    <person id="pedestrian31" depart="153.00">
        <walk edges="BynPl_1_1 TorPl_1_4 TorPl_2_2"/>
    </person>
    <person id="pedestrian32" depart="154.00">
        <walk edges="MalSt_1_1 BynPl_2_3 BynPl_1_2"/>
    </person>
    <person id="pedestrian33" depart="162.00">
        <walk edges="HunSt_1_2 TorPl_1_2"/>
    </person>
    <person id="pedestrian34" depart="162.00">
        <walk edges="GowSt_1_2 TorPl_2_1 BynPl_2_3 BynPl_2_2"/>
    </person>
    <person id="pedestrian35" depart="166.00">
        <walk edges="GorSq_2_3 BynPl_1_3 BynPl_2_2 BynPl_2_3 MalSt_2_1"/>
    </person>
    <person id="pedestrian36" depart="166.00">
        <walk edges="GorSq_2_3 BynPl_1_3 BynPl_1_2 BynPl_1_1 TorPl_1_4 TorPl_2_2 TorPl_2_3"/>
    </person>
    <person id="pedestrian37" depart="173.00">
        <walk edges="TorPl_1_4 BynPl_1_1 BynPl_1_2 BynPl_1_3 GorSq_1_2 GorSq_1_3"/>
    </person>
    <person id="pedestrian38" depart="174.00">
        <walk edges="MalPl_1_1 BynPl_1_1 BynPl_1_2 BynPl_1_3 GorSq_1_1"/>
    </person>
    <person id="pedestrian39" depart="177.00">
        <walk edges="RidGa_2_1 TorPl_2_3 TorPl_1_1"/>
    </person>
    <person id="pedestrian40" depart="207.00">
        <walk edges="HunSt_1_1 TorPl_2_3 RidGa_2_1"/>
    </person>
    <person id="pedestrian41" depart="209.00">
        <walk edges="TorPl_1_4 BynPl_1_1 BynPl_1_2 BynPl_1_3 GorSq_2_3"/>
    </person>
    <person id="pedestrian42" depart="216.00">
        <walk edges="HunSt_1_1 TorPl_1_2 TorPl_1_3 TorPl_1_4 BynPl_1_1 BynPl_2_2"/>
    </person>
    <person id="pedestrian43" depart="218.00">
        <walk edges="MalSt_1_1 TorPl_2_1 TorPl_2_2 RidGa_1_1"/>
    </person>
    <person id="pedestrian44" depart="221.00">
        <walk edges="HunSt_1_1 TorPl_1_2 CheMe_2_1"/>
    </person>
    <person id="pedestrian45" depart="234.00">
        <walk edges="HunSt_2_1 TorPl_1_2 CheMe_2_1"/>
    </person>
    <person id="pedestrian46" depart="234.00">
        <walk edges="RidGa_1_1"/>
    </person>
    <person id="pedestrian47" depart="235.00">
        <walk edges="GowSt_1_2 TorPl_1_4 BynPl_1_1 BynPl_1_2 BynPl_1_3 GorSq_1_2"/>
    </person>
    <person id="pedestrian48" depart="235.00">
        <walk edges="TorPl_2_1 GowSt_1_1"/>
    </person>
    <person id="pedestrian49" depart="241.00">
        <walk edges="TorPl_2_1 TorPl_2_2 TorPl_2_3 HunSt_1_2"/>
    </person>
    <person id="pedestrian50" depart="244.00">
        <walk edges="GorSq_2_3 BynPl_1_3 BynPl_2_2 BynPl_2_3 TorPl_2_1"/>
    </person>
    <person id="pedestrian51" depart="247.00">
        <walk edges="GorSq_1_2 BynPl_1_3 BynPl_1_2 BynPl_1_1 TorPl_1_4 TorPl_2_2"/>
    </person>
    <person id="pedestrian52" depart="257.00">
        <walk edges="TorPl_1_1 TorPl_2_3 TorPl_2_2"/>
    </person>
    <person id="pedestrian53" depart="258.00">
        <walk edges="GowSt_2_1 TorPl_2_2 TorPl_2_3 TorPl_2_4"/>
    </person>
    <person id="pedestrian54" depart="259.00">
        <walk edges="GowSt_2_2 TorPl_2_2 RidGa_2_1"/>
    </person>
    <person id="pedestrian55" depart="260.00">
        <walk edges="BynPl_2_1 BynPl_2_2 BynPl_2_3 TorPl_2_1 GowSt_1_2"/>
    </person>
    <person id="pedestrian56" depart="261.00">
        <walk edges="MalSt_2_1 TorPl_2_1 GowSt_2_1"/>
    </person>
    <person id="pedestrian57" depart="276.00">
        <walk edges="MalSt_1_1 TorPl_2_1 TorPl_2_2 RidGa_2_1"/>
    </person>
    <person id="pedestrian58" depart="278.00">
        <walk edges="CheMe_1_1 TorPl_1_3 TorPl_1_4 BynPl_1_1 BynPl_1_2 BynPl_1_3 GorSq_1_1"/>
    </person>
    <person id="pedestrian59" depart="285.00">
        <walk edges="MalSt_1_1 TorPl_2_1"/>
    </person>
    <person id="pedestrian60" depart="287.00">
        <walk edges="HunSt_1_1 TorPl_1_2 TorPl_1_3 TorPl_1_4 BynPl_1_1 BynPl_1_2 BynPl_1_3 GorSq_1_2 GorSq_1_3"/>
    </person>
    <person id="pedestrian61" depart="291.00">
        <walk edges="TorPl_2_2 TorPl_1_3 CheMe_1_1"/>
    </person>
    <person id="pedestrian62" depart="292.00">
        <walk edges="MalPl_1_1 TorPl_1_4 TorPl_1_3 CheMe_2_1"/>
    </person>
    <person id="pedestrian63" depart="294.00">
        <walk edges="TorPl_1_2 TorPl_1_3 TorPl_1_4 BynPl_1_1"/>
    </person>
    <person id="pedestrian64" depart="296.00">
        <walk edges="MalPl_1_1 TorPl_1_4 GowSt_2_1"/>
    </person>
    <person id="pedestrian65" depart="302.00">
        <walk edges="GowSt_2_1 TorPl_1_4 BynPl_1_1 BynPl_1_2 BynPl_1_3 GorSq_1_1"/>
    </person>
    <person id="pedestrian66" depart="309.00">
        <walk edges="BynPl_2_2 BynPl_2_3 TorPl_2_1 TorPl_2_2 TorPl_2_3 HunSt_2_1"/>
    </person>
    <person id="pedestrian67" depart="311.00">
        <walk edges="CheMe_1_1 TorPl_1_3 TorPl_1_4 BynPl_1_1 BynPl_2_2 BynPl_2_1 GorSq_2_2 GorSq_2_1"/>
    </person>
    <person id="pedestrian68" depart="314.00">
        <walk edges="GowSt_1_2 TorPl_1_4 BynPl_1_1 BynPl_1_2 BynPl_1_3 GorSq_1_1"/>
    </person>
    <person id="pedestrian69" depart="317.00">
        <walk edges="TorPl_2_4"/>
    </person>
    <person id="pedestrian70" depart="320.00">
        <walk edges="GorSq_1_2 BynPl_1_3 BynPl_1_2 BynPl_1_1"/>
    </person>
    <person id="pedestrian71" depart="322.00">
        <walk edges="TorPl_2_2 TorPl_1_4 BynPl_1_1 BynPl_1_2 BynPl_1_3"/>
    </person>
    <person id="pedestrian72" depart="325.00">
        <walk edges="BynPl_1_2 BynPl_1_1 TorPl_1_4 TorPl_1_3 TorPl_1_2 TorPl_1_1"/>
    </person>
    <person id="pedestrian73" depart="326.00">
        <walk edges="BynPl_1_3 BynPl_1_2 BynPl_1_1 TorPl_1_4 TorPl_2_2 TorPl_2_3 HunSt_1_2"/>
    </person>
    <person id="pedestrian74" depart="331.00">
        <walk edges="BynPl_1_1 BynPl_1_2"/>
    </person>
    <person id="pedestrian75" depart="335.00">
        <walk edges="HunSt_2_1 TorPl_2_3 TorPl_2_2 TorPl_2_1 BynPl_2_3 BynPl_2_2 BynPl_2_1 GorSq_2_2"/>
    </person>
    <person id="pedestrian76" depart="339.00">
        <walk edges="GorSq_1_1 GorSq_1_2 GorSq_2_1"/>
    </person>
    <person id="pedestrian77" depart="339.00">
        <walk edges="GorSq_2_3 BynPl_1_3 BynPl_1_2 BynPl_1_1 TorPl_1_4"/>
    </person>
    <person id="pedestrian78" depart="340.00">
        <walk edges="GorSq_1_3 GorSq_1_2 BynPl_1_3 BynPl_1_2 BynPl_1_1 TorPl_1_4 TorPl_2_2 TorPl_2_3"/>
    </person>
    <person id="pedestrian79" depart="340.00">
        <walk edges="GowSt_2_1 GowSt_1_2"/>
    </person>
    <person id="pedestrian80" depart="341.00">
        <walk edges="HunSt_2_2 TorPl_1_2 TorPl_1_3 TorPl_1_4 MalPl_2_1"/>
    </person>
    <person id="pedestrian81" depart="349.00">
        <walk edges="HunSt_1_2 TorPl_2_3 TorPl_2_2 TorPl_2_1 BynPl_2_3"/>
    </person>
    <person id="pedestrian82" depart="354.00">
        <walk edges="BynPl_1_3 GorSq_2_3"/>
    </person>
    <person id="pedestrian83" depart="355.00">
        <walk edges="TorPl_2_1 TorPl_2_2 TorPl_2_3 TorPl_1_1"/>
    </person>
    <person id="pedestrian84" depart="359.00">
        <walk edges="TorPl_2_1 GowSt_1_2"/>
    </person>
    <person id="pedestrian85" depart="359.00">
        <walk edges="CheMe_1_1 TorPl_1_3"/>
    </person>
    <person id="pedestrian86" depart="370.00">
        <walk edges="CheMe_2_1 TorPl_1_3 TorPl_1_4 MalPl_2_1"/>
    </person>
    <person id="pedestrian87" depart="371.00">
        <walk edges="GowSt_2_2 TorPl_1_4 BynPl_1_1"/>
    </person>
    <person id="pedestrian88" depart="379.00">
        <walk edges="CheMe_1_1 TorPl_1_2"/>
    </person>
    <person id="pedestrian89" depart="380.00">
        <walk edges="TorPl_1_4 BynPl_1_1 BynPl_1_2"/>
    </person>
    <person id="pedestrian90" depart="387.00">
        <walk edges="TorPl_1_2 TorPl_1_3 TorPl_1_4 MalPl_1_1"/>
    </person>
    <person id="pedestrian91" depart="394.00">
        <walk edges="BynPl_2_1 BynPl_2_2 BynPl_1_1 MalPl_1_1"/>
    </person>
    <person id="pedestrian92" depart="394.00">
        <walk edges="GowSt_2_1 TorPl_2_2 TorPl_2_3 HunSt_1_1"/>
    </person>
    <person id="pedestrian93" depart="394.00">
        <walk edges="TorPl_1_1 TorPl_1_2 TorPl_1_3 TorPl_1_4 BynPl_1_1 BynPl_2_2"/>
    </person>
    <person id="pedestrian94" depart="397.00">
        <walk edges="HunSt_2_1 TorPl_2_3 TorPl_2_2 TorPl_2_1 BynPl_2_3 BynPl_2_2 BynPl_2_1"/>
    </person>
    <person id="pedestrian95" depart="397.00">
        <walk edges="MalSt_1_1 BynPl_2_3 BynPl_2_2 BynPl_1_3 GorSq_2_3"/>
    </person>
    <person id="pedestrian96" depart="400.00">
        <walk edges="MalSt_1_1 TorPl_2_1 TorPl_2_2 TorPl_2_3"/>
    </person>
    <person id="pedestrian97" depart="404.00">
        <walk edges="MalPl_1_1 TorPl_1_4 TorPl_1_3 TorPl_1_2 HunSt_1_1"/>
    </person>
    <person id="pedestrian98" depart="410.00">
        <walk edges="GowSt_2_2 TorPl_1_4 BynPl_2_3"/>
    </person>
    <person id="pedestrian99" depart="416.00">
        <walk edges="TorPl_1_1 TorPl_1_2 TorPl_1_3 TorPl_1_4 BynPl_1_1 BynPl_2_2 BynPl_2_1"/>
    </person>
    <person id="pedestrian100" depart="432.00">
        <walk edges="CheMe_2_1 TorPl_1_2 TorPl_2_4"/>
    </person>
    <person id="pedestrian101" depart="435.00">
        <walk edges="GorSq_2_3 BynPl_1_3 BynPl_1_2 BynPl_1_1 TorPl_1_4 TorPl_1_3 TorPl_1_2 TorPl_1_1"/>
    </person>
    <person id="pedestrian102" depart="440.00">
        <walk edges="HunSt_1_1 TorPl_2_3 RidGa_2_1"/>
    </person>
    <person id="pedestrian103" depart="447.00">
        <walk edges="GowSt_2_2 TorPl_1_4 MalPl_1_1"/>
    </person>
    <person id="pedestrian104" depart="448.00">
        <walk edges="GorSq_1_1 BynPl_1_3"/>
    </person>
    <person id="pedestrian105" depart="448.00">
        <walk edges="BynPl_2_3 TorPl_1_4 GowSt_1_1"/>
    </person>
    <person id="pedestrian106" depart="449.00">
        <walk edges="BynPl_1_3 BynPl_1_2 BynPl_1_1 TorPl_1_4"/>
    </person>
    <person id="pedestrian107" depart="458.00">
        <walk edges="BynPl_2_2 BynPl_2_3 TorPl_2_1"/>
    </person>
    <person id="pedestrian108" depart="464.00">
        <walk edges="GowSt_1_2 TorPl_2_2 RidGa_1_1"/>
    </person>
    <person id="pedestrian109" depart="464.00">
        <walk edges="GorSq_2_3 BynPl_1_3 BynPl_1_2 BynPl_1_1 TorPl_1_4 TorPl_1_3 TorPl_1_2 HunSt_2_1"/>
    </person>
    <person id="pedestrian110" depart="475.00">
        <walk edges="MalPl_1_1 MalSt_2_1"/>
    </person>
    <person id="pedestrian111" depart="480.00">
        <walk edges="GorSq_1_3 GorSq_1_2 BynPl_1_3 BynPl_1_2 BynPl_1_1 TorPl_1_4"/>
    </person>
    <person id="pedestrian112" depart="481.00">
        <walk edges="TorPl_2_2 GowSt_1_2"/>
    </person>
    <person id="pedestrian113" depart="493.00">
        <walk edges="GorSq_1_1 BynPl_1_3 BynPl_1_2 BynPl_1_1 TorPl_1_4 TorPl_1_3 TorPl_1_2 TorPl_2_4"/>
    </person>
    <person id="pedestrian114" depart="495.00">
        <walk edges="HunSt_1_1 TorPl_1_2 TorPl_1_3 TorPl_1_4 BynPl_1_1 BynPl_1_2 BynPl_1_3 GorSq_1_2"/>
    </person>
    <person id="pedestrian115" depart="497.00">
        <walk edges="TorPl_1_2 TorPl_1_3 TorPl_1_4 BynPl_1_1 BynPl_1_2 BynPl_1_3"/>
    </person>
    <person id="pedestrian116" depart="503.00">
        <walk edges="BynPl_2_2 BynPl_2_3 MalSt_1_1"/>
    </person>
    <person id="pedestrian117" depart="504.00">
        <walk edges="TorPl_1_4 BynPl_1_1 BynPl_2_2"/>
    </person>
    <person id="pedestrian118" depart="507.00">
        <walk edges="GorSq_1_2 BynPl_1_3 BynPl_1_2 BynPl_1_1 TorPl_1_4 TorPl_2_2 TorPl_2_3 HunSt_1_2"/>
    </person>
    <person id="pedestrian119" depart="513.00">
        <walk edges="GorSq_2_3 BynPl_1_3 BynPl_1_2"/>
    </person>
    <person id="pedestrian120" depart="521.00">
        <walk edges="GowSt_2_1 TorPl_2_2 TorPl_2_3 HunSt_2_2"/>
    </person>
    <person id="pedestrian121" depart="525.00">
        <walk edges="GorSq_2_3 BynPl_1_3 BynPl_2_2 BynPl_2_3 MalSt_2_1"/>
    </person>
    <person id="pedestrian122" depart="525.00">
        <walk edges="TorPl_1_2 TorPl_1_3 TorPl_1_4 BynPl_1_1 BynPl_1_2 BynPl_1_3 GorSq_1_1"/>
    </person>
    <person id="pedestrian123" depart="531.00">
        <walk edges="TorPl_2_4 TorPl_1_2 CheMe_2_1"/>
    </person>
    <person id="pedestrian124" depart="532.00">
        <walk edges="GowSt_1_2 TorPl_2_1 BynPl_2_3 BynPl_2_2 BynPl_2_1"/>
    </person>
    <person id="pedestrian125" depart="535.00">
        <walk edges="MalPl_1_1 BynPl_1_1 BynPl_1_2 BynPl_1_3 GorSq_1_2 GorSq_1_3"/>
    </person>
    <person id="pedestrian126" depart="536.00">
        <walk edges="GowSt_2_1 TorPl_1_3 TorPl_1_2"/>
    </person>
    <person id="pedestrian127" depart="541.00">
        <walk edges="TorPl_2_2 TorPl_2_1 MalSt_1_1"/>
    </person>
    <person id="pedestrian128" depart="549.00">
        <walk edges="GowSt_2_2 TorPl_2_2 TorPl_2_3"/>
    </person>
    <person id="pedestrian129" depart="549.00">
        <walk edges="BynPl_2_1 BynPl_2_2 BynPl_2_3 TorPl_2_1 TorPl_2_2 TorPl_2_3 HunSt_1_2"/>
    </person>
    <person id="pedestrian130" depart="552.00">
        <walk edges="GorSq_1_2 BynPl_1_3 BynPl_1_2 BynPl_1_1 TorPl_1_4 TorPl_1_3 TorPl_1_2"/>
    </person>
    <person id="pedestrian131" depart="556.00">
        <walk edges="HunSt_2_2 HunSt_1_2"/>
    </person>
    <person id="pedestrian132" depart="561.00">
        <walk edges="HunSt_2_1"/>
    </person>
    <person id="pedestrian133" depart="570.00">
        <walk edges="MalSt_1_1 BynPl_2_3 BynPl_2_2 BynPl_1_3 GorSq_2_3"/>
    </person>
    <person id="pedestrian134" depart="574.00">
        <walk edges="TorPl_2_3 TorPl_2_2 TorPl_1_4 BynPl_1_1 BynPl_1_2 BynPl_1_3"/>
    </person>
    <person id="pedestrian135" depart="587.00">
        <walk edges="CheMe_2_1 TorPl_1_3 TorPl_1_4 BynPl_1_1 BynPl_2_2"/>
    </person>
    <person id="pedestrian136" depart="589.00">
        <walk edges="BynPl_2_2 BynPl_2_3 TorPl_2_1 TorPl_2_2 RidGa_1_1"/>
    </person>
    <person id="pedestrian137" depart="590.00">
        <walk edges="GowSt_2_1 TorPl_1_3 CheMe_2_1"/>
    </person>
    <person id="pedestrian138" depart="599.00">
        <walk edges="BynPl_1_2 BynPl_1_1 MalPl_2_1"/>
    </person>
    <person id="pedestrian139" depart="607.00">
        <walk edges="BynPl_1_1 TorPl_1_4 GowSt_1_2"/>
    </person>
    <person id="pedestrian140" depart="608.00">
        <walk edges="TorPl_1_4 TorPl_1_3 TorPl_1_2 TorPl_1_1"/>
    </person>
    <person id="pedestrian141" depart="617.00">
        <walk edges="BynPl_2_1 BynPl_2_2 BynPl_1_1 TorPl_1_4 GowSt_1_1"/>
    </person>
    <person id="pedestrian142" depart="618.00">
        <walk edges="GowSt_1_1 TorPl_1_4 BynPl_1_1 BynPl_2_2 BynPl_2_1 GorSq_2_2 GorSq_2_1"/>
    </person>
    <person id="pedestrian143" depart="628.00">
        <walk edges="HunSt_2_1 TorPl_2_3 TorPl_2_2 TorPl_2_1 BynPl_2_3 BynPl_2_2"/>
    </person>
    <person id="pedestrian144" depart="632.00">
        <walk edges="BynPl_2_1 GorSq_2_2"/>
    </person>
    <person id="pedestrian145" depart="634.00">
        <walk edges="TorPl_1_1 TorPl_2_3 RidGa_1_1"/>
    </person>
    <person id="pedestrian146" depart="638.00">
        <walk edges="HunSt_1_1 TorPl_1_2 TorPl_1_3 TorPl_1_4 BynPl_1_1 BynPl_1_2 BynPl_1_3 GorSq_1_2"/>
    </person>
    <person id="pedestrian147" depart="641.00">
        <walk edges="CheMe_1_1 TorPl_1_2 TorPl_2_3"/>
    </person>
    <person id="pedestrian148" depart="643.00">
        <walk edges="BynPl_2_1 BynPl_2_2 BynPl_2_3"/>
    </person>
    <person id="pedestrian149" depart="646.00">
        <walk edges="TorPl_1_3 TorPl_1_4 BynPl_2_3"/>
    </person>
    <person id="pedestrian150" depart="672.00">
        <walk edges="BynPl_2_1 BynPl_2_2 BynPl_2_3"/>
    </person>
    <person id="pedestrian151" depart="674.00">
        <walk edges="HunSt_1_1 TorPl_1_2"/>
    </person>
    <person id="pedestrian152" depart="678.00">
        <walk edges="GowSt_1_2 TorPl_2_1 BynPl_2_3 BynPl_2_2 BynPl_2_1 GorSq_2_2 GorSq_2_1"/>
    </person>
    <person id="pedestrian153" depart="680.00">
        <walk edges="MalSt_2_1 TorPl_2_1 TorPl_1_3 TorPl_1_2"/>
    </person>
    <person id="pedestrian154" depart="683.00">
        <walk edges="GowSt_2_1 TorPl_2_2 TorPl_2_3 HunSt_1_2"/>
    </person>
    <person id="pedestrian155" depart="685.00">
        <walk edges="GowSt_2_2 TorPl_2_2"/>
    </person>
    <person id="pedestrian156" depart="700.00">
        <walk edges="GowSt_1_2 TorPl_2_2 TorPl_2_3 TorPl_2_4"/>
    </person>
    <person id="pedestrian157" depart="713.00">
        <walk edges="TorPl_1_2 TorPl_1_3 GowSt_2_1"/>
    </person>
    <person id="pedestrian158" depart="713.00">
        <walk edges="RidGa_2_1 TorPl_2_3 TorPl_1_2"/>
    </person>
    <person id="pedestrian159" depart="718.00">
        <walk edges="TorPl_2_4 TorPl_2_3 TorPl_2_2 TorPl_2_1 MalSt_2_1"/>
    </person>
    <person id="pedestrian160" depart="718.00">
        <walk edges="GorSq_2_2 BynPl_2_1 BynPl_2_2 BynPl_2_3 TorPl_2_1 TorPl_2_2 TorPl_2_3"/>
    </person>
    <person id="pedestrian161" depart="719.00">
        <walk edges="TorPl_2_3 TorPl_2_2 TorPl_2_1 BynPl_2_3 BynPl_2_2 BynPl_2_1"/>
    </person>
    <person id="pedestrian162" depart="720.00">
        <walk edges="RidGa_2_1 TorPl_2_2 TorPl_2_1 MalSt_2_1"/>
    </person>
    <person id="pedestrian163" depart="724.00">
        <walk edges="GorSq_1_1 BynPl_1_3 BynPl_1_2 BynPl_1_1 TorPl_1_4 TorPl_2_2 RidGa_2_1"/>
    </person>
    <person id="pedestrian164" depart="734.00">
        <walk edges="TorPl_2_3 TorPl_2_4"/>
    </person>
    <person id="pedestrian165" depart="736.00">
        <walk edges="TorPl_2_2 TorPl_2_1 BynPl_2_3 BynPl_2_2 BynPl_2_1 GorSq_2_2 GorSq_2_1"/>
    </person>
    <person id="pedestrian166" depart="742.00">
        <walk edges="HunSt_1_1 TorPl_1_1"/>
    </person>
    <person id="pedestrian167" depart="744.00">
        <walk edges="HunSt_2_2 TorPl_2_3 RidGa_1_1"/>
    </person>
    <person id="pedestrian168" depart="748.00">
        <walk edges="GorSq_1_1 BynPl_1_3 BynPl_1_2 BynPl_1_1 TorPl_1_4 GowSt_2_2"/>
    </person>
    <person id="pedestrian169" depart="754.00">
        <walk edges="TorPl_2_2 TorPl_2_3 HunSt_2_2"/>
    </person>
    <person id="pedestrian170" depart="756.00">
        <walk edges="GorSq_2_1 GorSq_2_2 BynPl_2_1 BynPl_2_2 BynPl_2_3 TorPl_2_1 TorPl_2_2 TorPl_2_3 HunSt_2_1"/>
    </person>
    <person id="pedestrian171" depart="761.00">
        <walk edges="GorSq_2_3 BynPl_1_3 BynPl_1_2 BynPl_1_1 TorPl_1_4 TorPl_1_3 TorPl_1_2 TorPl_2_4"/>
    </person>
    <person id="pedestrian172" depart="771.00">
        <walk edges="RidGa_2_1 TorPl_2_2 TorPl_2_1 BynPl_2_3 BynPl_2_2"/>
    </person>
    <person id="pedestrian173" depart="782.00">
        <walk edges="TorPl_1_1 TorPl_1_2 TorPl_1_3 TorPl_1_4 MalSt_1_1"/>
    </person>
    <person id="pedestrian174" depart="783.00">
        <walk edges="GowSt_2_1 TorPl_1_4 BynPl_1_1 BynPl_1_2"/>
    </person>
    <person id="pedestrian175" depart="787.00">
        <walk edges="CheMe_1_1 TorPl_1_3 TorPl_1_4 BynPl_1_1 BynPl_1_2 BynPl_1_3 GorSq_2_3"/>
    </person>
    <person id="pedestrian176" depart="811.00">
        <walk edges="MalSt_1_1 TorPl_2_1 TorPl_2_2 RidGa_1_1"/>
    </person>
    <person id="pedestrian177" depart="822.00">
        <walk edges="HunSt_1_1 TorPl_1_2 TorPl_1_3 TorPl_1_4 BynPl_1_1 BynPl_1_2 BynPl_1_3 GorSq_1_2"/>
    </person>
    <person id="pedestrian178" depart="829.00">
        <walk edges="BynPl_2_2 BynPl_1_3 GorSq_1_2 GorSq_1_3"/>
    </person>
    <person id="pedestrian179" depart="830.00">
        <walk edges="TorPl_2_1 TorPl_2_2 TorPl_2_3 HunSt_2_1"/>
    </person>
    <person id="pedestrian180" depart="833.00">
        <walk edges="GorSq_1_3 GorSq_1_2 BynPl_1_3 BynPl_1_2 BynPl_1_1 TorPl_1_4 TorPl_1_3"/>
    </person>
    <person id="pedestrian181" depart="835.00">
        <walk edges="GorSq_1_3 GorSq_1_2 BynPl_1_3 BynPl_1_2 BynPl_1_1 TorPl_1_4 TorPl_2_2 TorPl_2_3 HunSt_1_2"/>
    </person>
    <person id="pedestrian182" depart="838.00">
        <walk edges="GowSt_1_2 TorPl_2_1 MalSt_2_1"/>
    </person>
    <person id="pedestrian183" depart="843.00">
        <walk edges="CheMe_1_1 TorPl_1_3 TorPl_1_4 BynPl_1_1 BynPl_1_2 BynPl_1_3"/>
    </person>
    <person id="pedestrian184" depart="845.00">
        <walk edges="HunSt_2_1 TorPl_1_2 TorPl_1_3 TorPl_1_4 BynPl_1_1"/>
    </person>
    <person id="pedestrian185" depart="854.00">
        <walk edges="TorPl_1_4 TorPl_1_3 TorPl_1_2 HunSt_1_1"/>
    </person>
    <person id="pedestrian186" depart="856.00">
        <walk edges="TorPl_1_2 TorPl_2_3 RidGa_1_1"/>
    </person>
    <person id="pedestrian187" depart="860.00">
        <walk edges="GowSt_2_2 TorPl_2_1 MalSt_2_1"/>
    </person>
    <person id="pedestrian188" depart="862.00">
        <walk edges="BynPl_1_2 BynPl_1_1 TorPl_1_4 TorPl_1_3 TorPl_1_2 HunSt_2_2"/>
    </person>
    <person id="pedestrian189" depart="862.00">
        <walk edges="GorSq_2_3 BynPl_1_3 BynPl_1_2 BynPl_1_1 TorPl_1_4 TorPl_2_2 TorPl_2_3"/>
    </person>
    <person id="pedestrian190" depart="865.00">
        <walk edges="GowSt_1_2 TorPl_1_3 TorPl_1_2"/>
    </person>
    <person id="pedestrian191" depart="879.00">
        <walk edges="BynPl_1_2 BynPl_1_1 TorPl_1_4 GowSt_2_1"/>
    </person>
    <person id="pedestrian192" depart="881.00">
        <walk edges="GorSq_1_3 GorSq_2_1"/>
    </person>
    <person id="pedestrian193" depart="895.00">
        <walk edges="BynPl_1_1 BynPl_2_3"/>
    </person>
    <person id="pedestrian194" depart="895.00">
        <walk edges="TorPl_1_1 TorPl_1_2 CheMe_1_1"/>
    </person>
    <person id="pedestrian195" depart="898.00">
        <walk edges="BynPl_2_3 TorPl_1_4 TorPl_1_3 TorPl_1_2 TorPl_1_1"/>
    </person>
    <person id="pedestrian196" depart="907.00">
        <walk edges="RidGa_2_1 TorPl_2_2 GowSt_2_1"/>
    </person>
    <person id="pedestrian197" depart="907.00">
        <walk edges="RidGa_2_1 TorPl_2_2 TorPl_1_4 BynPl_1_1 BynPl_1_2 BynPl_1_3 GorSq_1_2"/>
    </person>
    <person id="pedestrian198" depart="908.00">
        <walk edges="RidGa_2_1 TorPl_2_2 TorPl_1_3"/>
    </person>
    <person id="pedestrian199" depart="911.00">
        <walk edges="TorPl_2_4 HunSt_2_2"/>
    </person>
    <person id="pedestrian200" depart="913.00">
        <walk edges="HunSt_1_1 HunSt_2_1"/>
    </person>
    <person id="pedestrian201" depart="914.00">
        <walk edges="GorSq_1_2 BynPl_1_3 BynPl_1_2 BynPl_1_1 TorPl_1_4 TorPl_1_3 TorPl_1_2 TorPl_1_1"/>
    </person>
    <person id="pedestrian202" depart="924.00">
        <walk edges="HunSt_1_1 TorPl_2_3 RidGa_2_1"/>
    </person>
    <person id="pedestrian203" depart="926.00">
        <walk edges="HunSt_1_2 TorPl_2_3 TorPl_2_2 TorPl_1_4 BynPl_1_1 BynPl_1_2 BynPl_1_3 GorSq_1_1"/>
    </person>
    <person id="pedestrian204" depart="926.00">
        <walk edges="HunSt_2_1 TorPl_1_2 TorPl_1_3 TorPl_1_4 BynPl_1_1 BynPl_1_2 BynPl_1_3 GorSq_2_3"/>
    </person>
    <person id="pedestrian205" depart="928.00">
        <walk edges="GorSq_2_2 BynPl_2_1 BynPl_2_2 BynPl_2_3 TorPl_2_1 TorPl_2_2 TorPl_2_3 TorPl_2_4"/>
    </person>
    <person id="pedestrian206" depart="931.00">
        <walk edges="MalPl_2_1 BynPl_1_1 BynPl_1_2 BynPl_1_3 GorSq_1_2"/>
    </person>
    <person id="pedestrian207" depart="932.00">
        <walk edges="TorPl_2_1 BynPl_2_3"/>
    </person>
    <person id="pedestrian208" depart="938.00">
        <walk edges="GowSt_2_2 TorPl_1_3 TorPl_1_2 HunSt_1_1"/>
    </person>
    <person id="pedestrian209" depart="949.00">
        <walk edges="HunSt_2_1 TorPl_1_2 TorPl_1_3 TorPl_1_4 BynPl_1_1 BynPl_1_2 BynPl_1_3 GorSq_1_1"/>
    </person>
    <person id="pedestrian210" depart="949.00">
        <walk edges="GorSq_1_3 GorSq_1_2 BynPl_1_3 BynPl_2_2 BynPl_2_3"/>
    </person>
    <person id="pedestrian211" depart="954.00">
        <walk edges="HunSt_2_1 TorPl_2_3 TorPl_2_2 TorPl_2_1 BynPl_2_3"/>
    </person>
    <person id="pedestrian212" depart="955.00">
        <walk edges="BynPl_1_3 BynPl_1_2 BynPl_1_1 TorPl_1_4 TorPl_2_2"/>
    </person>
    <person id="pedestrian213" depart="958.00">
        <walk edges="GorSq_2_1 GorSq_2_2 BynPl_2_1 BynPl_2_2 BynPl_2_3 TorPl_2_1 TorPl_2_2 RidGa_1_1"/>
    </person>
    <person id="pedestrian214" depart="960.00">
        <walk edges="MalSt_1_1 BynPl_2_3 BynPl_2_2 BynPl_2_1 GorSq_2_2 GorSq_2_1"/>
    </person>
    <person id="pedestrian215" depart="966.00">
        <walk edges="BynPl_1_3 BynPl_1_2 BynPl_1_1 TorPl_1_4 TorPl_2_2 TorPl_2_3"/>
    </person>
    <person id="pedestrian216" depart="974.00">
        <walk edges="TorPl_2_4 HunSt_1_1"/>
    </person>
    <person id="pedestrian217" depart="975.00">
        <walk edges="GowSt_2_2 TorPl_1_3 TorPl_1_2 TorPl_1_1"/>
    </person>
    <person id="pedestrian218" depart="985.00">