<?xml version="1.0" encoding="UTF-8"?>

<!-- generated on 2025-12-31 15:03:37.197116 by Eclipse SUMO randomTrips.py UNKNOWN
<configuration>
    <net-file value="../networks/demo/main.net.xml"/>
    <output-trip-file value="../routes/demo/train/2/pedestrian.trips.xml"/>
    <route-file value="../routes/demo/train/2/pedestrian.rou.xml"/>
    <pedestrians value="True"/>
    <prefix value="pedestrian"/>
    <seed value="2"/>
    <insertion-density value="200.0"/>
    <binomial value="100"/>
</configuration>
-->

<!-- generated on 2025-12-31T15:03:37.180484+00:00 by Eclipse SUMO duarouter 1.25.0
<duarouterConfiguration xmlns:xsi="http://www.w3.org/2001/XMLSchema-instance" xsi:noNamespaceSchemaLocation="http://sumo.dlr.de/xsd/duarouterConfiguration.xsd">

    <input>
        <net-file value="../networks/demo/main.net.xml"/>
        <route-files value="../routes/demo/train/2/pedestrian.trips.xml"/>
    </input>

    <output>
        <output-file value="../routes/demo/train/2/pedestrian.rou.xml"/>
        <alternatives-output value="NUL"/>
    </output>

    <time>
        <begin value="0"/>
        <end value="3600.0"/>
    </time>

    <report>
        <no-warnings value="true"/>
        <ignore-errors value="true"/>
        <no-step-log value="true"/>
    </report>

</duarouterConfiguration>
-->

<routes xmlns:xsi="http://www.w3.org/2001/XMLSchema-instance" xsi:noNamespaceSchemaLocation="http://sumo.dlr.de/xsd/routes_file.xsd">
    <person id="pedestrian0" depart="9.00">
        <walk edges="BynPl_2_1 BynPl_2_2 BynPl_1_1 TorPl_1_4 TorPl_1_3 TorPl_1_2 TorPl_1_1"/>
    </person>
    <person id="pedestrian1" depart="10.00">
        <walk edges="TorPl_1_1 TorPl_1_2 TorPl_1_3 TorPl_1_4 BynPl_1_1 BynPl_1_2 BynPl_1_3 GorSq_2_3"/>
    </person>
    <person id="pedestrian2" depart="12.00">
        <walk edges="TorPl_2_3 HunSt_2_1"/>
    </person>
    <person id="pedestrian3" depart="12.00">
        <walk edges="TorPl_2_1 BynPl_2_3 BynPl_1_2"/>
    </person>
    <person id="pedestrian4" depart="25.00">
        <walk edges="MalPl_2_1 BynPl_1_1 BynPl_1_2 BynPl_1_3 GorSq_2_3"/>
    </person>
    <person id="pedestrian5" depart="26.00">
        <walk edges="GowSt_2_2 TorPl_1_4"/>
    </person>
    <person id="pedestrian6" depart="29.00">
        <walk edges="MalSt_2_1 TorPl_2_1 TorPl_2_2 TorPl_2_3 HunSt_2_2"/>
    </person>
    <person id="pedestrian7" depart="33.00">
        <walk edges="HunSt_2_1 TorPl_2_3 TorPl_2_2"/>
    </person>
    <person id="pedestrian8" depart="34.00">
        <walk edges="GorSq_1_1 BynPl_1_3 BynPl_1_2 BynPl_1_1 TorPl_1_4 GowSt_2_2"/>
    </person>
    <person id="pedestrian9" depart="34.00">
        <walk edges="TorPl_1_1 TorPl_2_3 RidGa_2_1"/>
    </person>
    <person id="pedestrian10" depart="38.00">
        <walk edges="TorPl_2_3 HunSt_2_2"/>
    </person>
    <person id="pedestrian11" depart="42.00">
        <walk edges="TorPl_2_4 TorPl_1_2 TorPl_1_3 TorPl_1_4 BynPl_1_1"/>
    </person>
    <person id="pedestrian12" depart="43.00">
        <walk edges="TorPl_1_1 TorPl_1_2 TorPl_1_3 TorPl_1_4 MalPl_2_1"/>
    </person>
    <person id="pedestrian13" depart="43.00">
        <walk edges="BynPl_2_3 TorPl_2_1 TorPl_2_2 TorPl_2_3 HunSt_2_1"/>
    </person>
    <person id="pedestrian14" depart="44.00">
        <walk edges="TorPl_2_2 TorPl_2_3 HunSt_1_2"/>
    </person>
    <person id="pedestrian15" depart="48.00">
        <walk edges="TorPl_2_3 TorPl_2_2 TorPl_1_4 BynPl_1_1 BynPl_1_2 BynPl_1_3 GorSq_1_2 GorSq_1_3"/>
    </person>
    <person id="pedestrian16" depart="51.00">
        <walk edges="TorPl_2_3 TorPl_2_2 TorPl_2_1 BynPl_2_3 BynPl_2_2 BynPl_2_1 GorSq_2_2 GorSq_2_1"/>
    </person>
    <person id="pedestrian17" depart="52.00">
        <walk edges="MalPl_1_1 BynPl_1_1 BynPl_2_2 BynPl_2_1"/>
    </person>
    <person id="pedestrian18" depart="55.00">
        <walk edges="GorSq_2_2 BynPl_2_1 BynPl_2_2 BynPl_2_3 TorPl_2_1 TorPl_2_2 TorPl_2_3"/>
    </person>
    <person id="pedestrian19" depart="60.00">
        <walk edges="TorPl_2_2 TorPl_2_3 HunSt_1_2"/>
    </person>
    <person id="pedestrian20" depart="60.00">
        <walk edges="HunSt_1_2 TorPl_2_3 TorPl_2_2 TorPl_2_1 MalSt_1_1"/>
    </person>
    <person id="pedestrian21" depart="64.00">
        <walk edges="BynPl_1_2 BynPl_2_2"/>
    </person>
    <person id="pedestrian22" depart="69.00">
        <walk edges="GorSq_2_2 GorSq_1_2 BynPl_1_3"/>
    </person>
    <person id="pedestrian23" depart="69.00">
        <walk edges="BynPl_2_1 BynPl_2_2"/>
    </person>
    <person id="pedestrian24" depart="75.00">
        <walk edges="HunSt_2_2 HunSt_1_1"/>
    </person>
    <person id="pedestrian25" depart="79.00">
        <walk edges="MalPl_1_1 BynPl_1_1 BynPl_1_2 BynPl_1_3"/>
    </person>
    <person id="pedestrian26" depart="89.00">
        <walk edges="BynPl_2_3 MalPl_1_1"/>
    </person>
    <person id="pedestrian27" depart="98.00">
        <walk edges="BynPl_2_2"/>
    </person>
    <person id="pedestrian28" depart="99.00">
        <walk edges="TorPl_2_3 TorPl_2_2 GowSt_1_2"/>
    </person>
    <person id="pedestrian29" depart="105.00">
        <walk edges="MalSt_2_1 MalSt_1_1"/>
    </person>
    <person id="pedestrian30" depart="109.00">
        <walk edges="MalSt_1_1 BynPl_2_3"/>
    </person>
    <person id="pedestrian31" depart="115.00">
        <walk edges="BynPl_2_2 BynPl_2_3 TorPl_2_1 GowSt_1_2"/>
    </person>
    <person id="pedestrian32" depart="116.00">
        <walk edges="HunSt_2_2 TorPl_1_2 TorPl_1_3"/>
    </person>
    <person id="pedestrian33" depart="119.00">
        <walk edges="GowSt_2_2 TorPl_1_3"/>
    </person>
    <person id="pedestrian34" depart="119.00">
        <walk edges="TorPl_2_2 TorPl_2_3 HunSt_2_1"/>
    </person>
    <person id="pedestrian35" depart="128.00">
        <walk edges="HunSt_2_1 TorPl_2_3 RidGa_2_1"/>
    </person>
    <person id="pedestrian36" depart="130.00">
        <walk edges="GowSt_2_2 TorPl_2_2 RidGa_1_1"/>
    </person>
    <person id="pedestrian37" depart="133.00">
        <walk edges="MalSt_1_1 BynPl_2_3 BynPl_2_2 BynPl_2_1 GorSq_2_2"/>
    </person>
    <person id="pedestrian38" depart="138.00">
        <walk edges="MalSt_1_1 TorPl_2_1 TorPl_2_2 TorPl_2_3 TorPl_2_4"/>
    </person>
    <person id="pedestrian39" depart="139.00">
        <walk edges="MalPl_1_1 BynPl_1_1 BynPl_1_2 BynPl_1_3 GorSq_2_3"/>
    </person>
    <person id="pedestrian40" depart="140.00">
        <walk edges="GorSq_1_3 GorSq_1_2 BynPl_1_3 BynPl_1_2 BynPl_1_1 TorPl_1_4 TorPl_2_2 TorPl_2_3 HunSt_1_2"/>
    </person>
    <person id="pedestrian41" depart="141.00">
        <walk edges="GowSt_1_1 TorPl_1_3 TorPl_1_2"/>
    </person>
    <person id="pedestrian42" depart="151.00">
        <walk edges="TorPl_1_2 TorPl_1_3 GowSt_1_2"/>
    </person>
    <person id="pedestrian43" depart="152.00">
        <walk edges="MalPl_2_1 BynPl_1_1"/>
    </person>
    <person id="pedestrian44" depart="153.00">
        <walk edges="HunSt_2_1 TorPl_1_2"/>
    </person>
    <person id="pedestrian45" depart="157.00">
        <walk edges="GorSq_2_3 GorSq_1_2 GorSq_1_3"/>
    </person>
    <person id="pedestrian46" depart="159.00">
        <walk edges="BynPl_2_1 BynPl_1_3"/>
    </person>
    <person id="pedestrian47" depart="162.00">
        <walk edges="MalPl_1_1 TorPl_1_4 TorPl_1_3 TorPl_1_2 TorPl_1_1"/>
    </person>
    <person id="pedestrian48" depart="163.00">
        <walk edges="GorSq_2_3 BynPl_1_3 BynPl_1_2 BynPl_1_1 TorPl_1_4 TorPl_1_3"/>
    </person>
    <person id="pedestrian49" depart="164.00">
        <walk edges="TorPl_2_3 TorPl_2_4"/>
    </person>
    <person id="pedestrian50" depart="168.00">
        <walk edges="GowSt_2_1 TorPl_2_2 TorPl_2_3"/>
    </person>
    <person id="pedestrian51" depart="175.00">
        <walk edges="MalSt_1_1 BynPl_2_3 BynPl_2_2 BynPl_1_3"/>
    </person>
    <person id="pedestrian52" depart="176.00">
        <walk edges="BynPl_1_1 TorPl_1_4 TorPl_2_2 RidGa_1_1"/>
    </person>
    <person id="pedestrian53" depart="176.00">
        <walk edges="BynPl_2_1 BynPl_2_2 BynPl_2_3 TorPl_2_1 TorPl_2_2 TorPl_2_3"/>
    </person>
    <person id="pedestrian54" depart="178.00">
        <walk edges="BynPl_1_1 TorPl_1_4 TorPl_1_3 TorPl_1_2 TorPl_1_1"/>
    </person>
    <person id="pedestrian55" depart="186.00">
        <walk edges="GowSt_1_1 TorPl_1_4 MalPl_1_1"/>
    </person>
    <person id="pedestrian56" depart="186.00">
        <walk edges="HunSt_2_1 TorPl_2_4"/>
    </person>
    <person id="pedestrian57" depart="189.00">
        <walk edges="BynPl_2_2 BynPl_2_3"/>
    </person>
    <person id="pedestrian58" depart="197.00">
        <walk edges="HunSt_2_2 TorPl_2_3 TorPl_2_2"/>
    </person>
    <person id="pedestrian59" depart="198.00">
        <walk edges="HunSt_1_1"/>
    </person>
    <person id="pedestrian60" depart="202.00">
        <walk edges="BynPl_1_1 BynPl_1_2 BynPl_1_3"/>
    </person>
    <person id="pedestrian61" depart="212.00">
        <walk edges="TorPl_2_2 TorPl_1_3 CheMe_1_1"/>
    </person>
    <person id="pedestrian62" depart="218.00">
        <walk edges="GowSt_2_1 TorPl_2_2 TorPl_2_3 TorPl_2_4"/>
    </person>
    <person id="pedestrian63" depart="223.00">
        <walk edges="RidGa_1_1"/>
    </person>
    <person id="pedestrian64" depart="223.00">
        <walk edges="RidGa_2_1 TorPl_2_2 TorPl_1_4 BynPl_1_1"/>
    </person>
    <person id="pedestrian65" depart="224.00">
        <walk edges="HunSt_2_2 TorPl_2_3"/>
    </person>
    <person id="pedestrian66" depart="228.00">
        <walk edges="BynPl_1_1 BynPl_1_2 BynPl_1_3 GorSq_2_3"/>
    </person>
    <person id="pedestrian67" depart="230.00">
        <walk edges="RidGa_1_1 TorPl_2_3 TorPl_2_4"/>
    </person>
    <person id="pedestrian68" depart="233.00">
        <walk edges="TorPl_1_4 BynPl_1_1 BynPl_2_2 BynPl_2_1"/>
    </person>
    <person id="pedestrian69" depart="236.00">
        <walk edges="TorPl_1_4 TorPl_2_2"/>
    </person>
    <person id="pedestrian70" depart="238.00">
        <walk edges="GorSq_1_2 BynPl_1_3 BynPl_2_2"/>
    </person>
    <person id="pedestrian71" depart="240.00">
        <walk edges="TorPl_2_1 TorPl_2_2 TorPl_2_3 TorPl_1_1"/>
    </person>
    <person id="pedestrian72" depart="247.00">
        <walk edges="CheMe_2_1 TorPl_1_3 TorPl_1_4 BynPl_2_3"/>
    </person>
    <person id="pedestrian73" depart="253.00">
        <walk edges="TorPl_1_2 TorPl_1_3 TorPl_1_4 BynPl_1_1"/>
    </person>
    <person id="pedestrian74" depart="254.00">
        <walk edges="GowSt_1_1 TorPl_1_4 BynPl_1_1 BynPl_1_2 BynPl_1_3 GorSq_2_3"/>
    </person>
    <person id="pedestrian75" depart="256.00">
        <walk edges="GowSt_1_1 TorPl_1_3 CheMe_1_1"/>
    </person>
    <person id="pedestrian76" depart="259.00">
        <walk edges="MalPl_1_1 TorPl_1_4 TorPl_1_3 TorPl_1_2"/>
    </person>
    <person id="pedestrian77" depart="259.00">
        <walk edges="MalSt_1_1 BynPl_2_3 BynPl_1_2"/>
    </person>
    <person id="pedestrian78" depart="266.00">
        <walk edges="MalPl_2_1 MalSt_1_1"/>
    </person>
    <person id="pedestrian79" depart="267.00">
        <walk edges="TorPl_2_4 HunSt_1_2"/>
    </person>
    <person id="pedestrian80" depart="267.00">
        <walk edges="GorSq_2_2 BynPl_2_1 BynPl_2_2 BynPl_2_3 TorPl_2_1 GowSt_2_1"/>
    </person>
    <person id="pedestrian81" depart="270.00">
        <walk edges="HunSt_2_2 TorPl_1_2 TorPl_1_3 TorPl_1_4 BynPl_1_1 BynPl_1_2 BynPl_1_3 GorSq_1_1"/>
    </person>
    <person id="pedestrian82" depart="276.00">
        <walk edges="RidGa_1_1 TorPl_2_2 TorPl_2_1 MalSt_2_1"/>
    </person>
    <person id="pedestrian83" depart="277.00">
        <walk edges="TorPl_1_2 HunSt_1_1"/>
    </person>
    <person id="pedestrian84" depart="281.00">
        <walk edges="TorPl_1_4 TorPl_1_3 TorPl_1_2 HunSt_2_1"/>
    </person>
    <person id="pedestrian85" depart="296.00">
        <walk edges="BynPl_2_2 BynPl_1_1 TorPl_1_4 GowSt_2_2"/>
    </person>
    <person id="pedestrian86" depart="301.00">
        <walk edges="HunSt_1_2 TorPl_2_3 TorPl_2_2 TorPl_2_1 MalSt_1_1"/>
    </person>
    <person id="pedestrian87" depart="303.00">
        <walk edges="TorPl_1_1 TorPl_1_2 TorPl_1_3 TorPl_1_4 BynPl_1_1 BynPl_2_2 BynPl_2_1 GorSq_2_2 GorSq_2_1"/>
    </person>
    <person id="pedestrian88" depart="326.00">
        <walk edges="TorPl_1_2 TorPl_1_1"/>
    </person>
    <person id="pedestrian89" depart="331.00">
        <walk edges="GorSq_2_3 BynPl_1_3 BynPl_1_2 BynPl_1_1 TorPl_1_4 TorPl_2_2 TorPl_2_3"/>
    </person>
    <person id="pedestrian90" depart="336.00">
        <walk edges="BynPl_2_1 BynPl_1_2"/>
    </person>
    <person id="pedestrian91" depart="336.00">
        <walk edges="GorSq_2_1 GorSq_2_2 BynPl_2_1 BynPl_2_2 BynPl_1_1 MalPl_2_1"/>
    </person>
    <person id="pedestrian92" depart="346.00">
        <walk edges="GowSt_2_1 TorPl_2_1 BynPl_2_3 BynPl_2_2"/>
    </person>
    <person id="pedestrian93" depart="347.00">
        <walk edges="BynPl_2_2 BynPl_1_1 TorPl_1_4 TorPl_1_3"/>
    </person>
    <person id="pedestrian94" depart="351.00">
        <walk edges="TorPl_1_1 TorPl_1_2 TorPl_1_3 TorPl_1_4 BynPl_1_1 BynPl_1_2 BynPl_1_3 GorSq_2_3"/>
    </person>
    <person id="pedestrian95" depart="356.00">
        <walk edges="BynPl_2_3 TorPl_1_4 TorPl_1_3 TorPl_1_2 HunSt_1_1"/>
    </person>
    <person id="pedestrian96" depart="356.00">
        <walk edges="TorPl_2_3 TorPl_2_2 GowSt_1_2"/>
    </person>
    <person id="pedestrian97" depart="368.00">
        <walk edges="GorSq_1_3 GorSq_1_2 BynPl_1_3 BynPl_1_2 BynPl_1_1 TorPl_1_4 GowSt_2_2"/>
    </person>
    <person id="pedestrian98" depart="369.00">
        <walk edges="MalSt_2_1 TorPl_2_1 TorPl_2_2 TorPl_2_3 TorPl_1_1"/>
    </person>
    <person id="pedestrian99" depart="375.00">
        <walk edges="TorPl_2_3 HunSt_1_1"/>
    </person>
    <person id="pedestrian100" depart="377.00">
        <walk edges="MalSt_1_1 TorPl_2_1 TorPl_2_2 TorPl_2_3 HunSt_1_2"/>
    </person>
    <person id="pedestrian101" depart="389.00">
        <walk edges="GowSt_2_1 GowSt_2_2"/>
    </person>
    <person id="pedestrian102" depart="391.00">
        <walk edges="CheMe_1_1 TorPl_1_3 TorPl_1_4 BynPl_1_1 BynPl_2_2 BynPl_2_1 GorSq_2_2 GorSq_2_1"/>
    </person>
    <person id="pedestrian103" depart="394.00">
        <walk edges="MalPl_1_1 TorPl_1_4 TorPl_2_2 RidGa_2_1"/>
    </person>
    <person id="pedestrian104" depart="397.00">
        <walk edges="GowSt_2_1 TorPl_1_4 MalPl_2_1"/>
    </person>
    <person id="pedestrian105" depart="397.00">
        <walk edges="HunSt_1_2 TorPl_2_3 TorPl_2_2 TorPl_1_4 BynPl_1_1 BynPl_1_2 BynPl_1_3 GorSq_2_3"/>
    </person>
    <person id="pedestrian106" depart="409.00">
        <walk edges="TorPl_1_2 TorPl_1_3 TorPl_1_4 BynPl_1_1 BynPl_1_2 BynPl_1_3 GorSq_2_3"/>
    </person>
    <person id="pedestrian107" depart="414.00">
        <walk edges="TorPl_2_4 TorPl_1_2 TorPl_1_3 TorPl_1_4 BynPl_1_1 BynPl_1_2 BynPl_1_3 GorSq_1_1"/>
    </person>
    <person id="pedestrian108" depart="416.00">
        <walk edges="GowSt_1_1 TorPl_2_2 RidGa_1_1"/>
    </person>
    <person id="pedestrian109" depart="424.00">
        <walk edges="GowSt_2_2 TorPl_2_1"/>
    </person>
    <person id="pedestrian110" depart="435.00">
        <walk edges="MalPl_2_1 TorPl_1_4 TorPl_2_2 TorPl_2_3 HunSt_1_2"/>
    </person>
    <person id="pedestrian111" depart="440.00">
        <walk edges="MalSt_1_1 BynPl_2_3"/>
    </person>
    <person id="pedestrian112" depart="440.00">
        <walk edges="TorPl_2_2 TorPl_2_3 TorPl_1_1"/>
    </person>
    <person id="pedestrian113" depart="442.00">
        <walk edges="TorPl_2_1 TorPl_1_3"/>
    </person>
    <person id="pedestrian114" depart="445.00">
        <walk edges="GowSt_1_2 TorPl_2_2 RidGa_1_1"/>
    </person>
    <person id="pedestrian115" depart="464.00">
        <walk edges="BynPl_2_3 MalSt_1_1"/>
    </person>
    <person id="pedestrian116" depart="469.00">
        <walk edges="TorPl_1_4 BynPl_1_1 BynPl_1_2"/>
    </person>
    <person id="pedestrian117" depart="473.00">
        <walk edges="BynPl_1_1 BynPl_2_2"/>
    </person>
    <person id="pedestrian118" depart="479.00">
        <walk edges="TorPl_1_2 HunSt_2_2"/>
    </person>
    <person id="pedestrian119" depart="480.00">
        <walk edges="HunSt_2_2 TorPl_1_2 TorPl_1_3 TorPl_1_4 BynPl_1_1 BynPl_1_2"/>
    </person>
    <person id="pedestrian120" depart="481.00">
        <walk edges="TorPl_2_2 GowSt_2_1"/>
    </person>
    <person id="pedestrian121" depart="481.00">
        <walk edges="GorSq_1_1 BynPl_1_3 BynPl_1_2 BynPl_1_1 TorPl_1_4 TorPl_1_3 TorPl_1_2 HunSt_2_2"/>
    </person>
    <person id="pedestrian122" depart="486.00">
        <walk edges="CheMe_2_1 TorPl_1_3 TorPl_1_4 BynPl_1_1 BynPl_1_2 BynPl_1_3 GorSq_1_1"/>
    </person>
    <person id="pedestrian123" depart="496.00">
        <walk edges="GorSq_2_1 GorSq_2_2 BynPl_2_1 BynPl_2_2 BynPl_1_1 TorPl_1_4 TorPl_1_3 TorPl_1_2 HunSt_2_2"/>
    </person>
    <person id="pedestrian124" depart="505.00">
        <walk edges="GorSq_2_1 GorSq_2_2 BynPl_2_1 BynPl_2_2 BynPl_2_3 TorPl_2_1 TorPl_2_2 TorPl_2_3 TorPl_2_4"/>
    </person>
    <person id="pedestrian125" depart="507.00">
        <walk edges="CheMe_2_1 TorPl_1_3 TorPl_1_4 BynPl_1_1"/>
    </person>
    <person id="pedestrian126" depart="510.00">
        <walk edges="RidGa_2_1 TorPl_2_2 TorPl_1_4"/>
    </person>
    <person id="pedestrian127" depart="511.00">
        <walk edges="GorSq_1_3 GorSq_1_2 BynPl_1_3 BynPl_1_2 BynPl_1_1 TorPl_1_4 TorPl_1_3 TorPl_1_2 TorPl_2_4"/>
    </person>
    <person id="pedestrian128" depart="514.00">
        <walk edges="GorSq_2_2 BynPl_2_1 BynPl_2_2 BynPl_2_3 MalSt_2_1"/>
    </person>
    <person id="pedestrian129" depart="517.00">
        <walk edges="TorPl_2_1 TorPl_2_2 RidGa_2_1"/>
    </person>
    <person id="pedestrian130" depart="520.00">
        <walk edges="MalPl_2_1 TorPl_1_4 TorPl_1_3 TorPl_1_2"/>
    </person>
    <person id="pedestrian131" depart="526.00">
        <walk edges="GowSt_2_2 TorPl_1_4 BynPl_1_1 BynPl_2_2"/>
    </person>
    <person id="pedestrian132" depart="532.00">
        <walk edges="TorPl_1_1"/>
    </person>
    <person id="pedestrian133" depart="540.00">
        <walk edges="GorSq_1_3 GorSq_1_2 BynPl_1_3 BynPl_1_2 BynPl_1_1 TorPl_1_4 TorPl_2_2 TorPl_2_3"/>
    </person>
    <person id="pedestrian134" depart="552.00">
        <walk edges="CheMe_1_1 TorPl_1_3 TorPl_1_4 MalPl_2_1"/>
    </person>
    <person id="pedestrian135" depart="555.00">
        <walk edges="GorSq_2_2"/>
    </person>
    <person id="pedestrian136" depart="560.00">
        <walk edges="HunSt_2_2 TorPl_2_3 TorPl_2_2 TorPl_2_1 MalSt_2_1"/>
    </person>
    <person id="pedestrian137" depart="564.00">
        <walk edges="GorSq_2_2 BynPl_2_1 BynPl_2_2 BynPl_2_3 MalSt_1_1"/>
    </person>
    <person id="pedestrian138" depart="565.00">
        <walk edges="MalSt_2_1 TorPl_2_1 GowSt_2_2"/>
    </person>
    <person id="pedestrian139" depart="566.00">
        <walk edges="TorPl_1_1 TorPl_2_3 TorPl_2_2"/>
    </person>
    <person id="pedestrian140" depart="572.00">
        <walk edges="BynPl_1_2 BynPl_1_1 MalPl_1_1"/>
    </person>
    <person id="pedestrian141" depart="574.00">
        <walk edges="TorPl_1_2 TorPl_1_3 TorPl_1_4 BynPl_2_3"/>
    </person>
    <person id="pedestrian142" depart="577.00">
        <walk edges="GorSq_2_3 BynPl_1_3 BynPl_1_2 BynPl_1_1 TorPl_1_4 TorPl_2_2"/>
    </person>
    <person id="pedestrian143" depart="580.00">
        <walk edges="GowSt_2_2 TorPl_1_4 BynPl_1_1 BynPl_1_2 BynPl_1_3"/>
    </person>
    <person id="pedestrian144" depart="591.00">
        <walk edges="BynPl_1_3"/>
    </person>
    <person id="pedestrian145" depart="594.00">
        <walk edges="GowSt_1_1 TorPl_2_2 TorPl_2_3"/>
    </person>
    <person id="pedestrian146" depart="596.00">
        <walk edges="TorPl_2_4 TorPl_2_3 TorPl_2_2 TorPl_2_1 BynPl_2_3"/>
    </person>
    <person id="pedestrian147" depart="599.00">
        <walk edges="HunSt_2_2 TorPl_1_2 TorPl_1_3"/>
    </person>
    <person id="pedestrian148" depart="603.00">
        <walk edges="GorSq_1_3 GorSq_1_2 BynPl_1_3 BynPl_1_2 BynPl_1_1 TorPl_1_4 TorPl_2_2 TorPl_2_3 HunSt_1_2"/>
    </person>
    <person id="pedestrian149" depart="612.00">
        <walk edges="MalSt_2_1 TorPl_2_1 TorPl_2_2"/>
    </person>
    <person id="pedestrian150" depart="614.00">
        <walk edges="HunSt_1_1 TorPl_1_2 TorPl_1_3 TorPl_1_4 BynPl_1_1"/>
    </person>
    <person id="pedestrian151" depart="621.00">
        <walk edges="GorSq_1_2 BynPl_1_3 BynPl_1_2 BynPl_1_1 MalPl_2_1"/>
    </person>
    <person id="pedestrian152" depart="624.00">
        <walk edges="TorPl_2_2 GowSt_1_1"/>
    </person>
    <person id="pedestrian153" depart="626.00">
        <walk edges="TorPl_1_1 TorPl_1_2 TorPl_1_3 GowSt_1_1"/>
    </person>
    <person id="pedestrian154" depart="633.00">
        <walk edges="MalPl_1_1 BynPl_1_1 BynPl_2_2 BynPl_2_1 GorSq_2_2 GorSq_2_1"/>
    </person>
    <person id="pedestrian155" depart="637.00">
        <walk edges="CheMe_1_1 TorPl_1_3 TorPl_1_4 BynPl_1_1 BynPl_1_2 BynPl_1_3 GorSq_1_1"/>
    </person>
    <person id="pedestrian156" depart="638.00">
        <walk edges="HunSt_1_2 TorPl_2_3 TorPl_2_2 TorPl_2_1 MalSt_1_1"/>
    </person>
    <person id="pedestrian157" depart="645.00">
        <walk edges="BynPl_2_2 BynPl_1_1 TorPl_1_4 TorPl_1_3 TorPl_1_2 HunSt_1_1"/>
    </person>
    <person id="pedestrian158" depart="648.00">
        <walk edges="BynPl_1_2 BynPl_1_1 TorPl_1_4 GowSt_2_2"/>
    </person>
    <person id="pedestrian159" depart="654.00">
        <walk edges="HunSt_2_1 TorPl_2_3 RidGa_1_1"/>
    </person>
    <person id="pedestrian160" depart="666.00">
        <walk edges="TorPl_2_4 TorPl_1_2 TorPl_1_3 GowSt_2_2"/>
    </person>
    <person id="pedestrian161" depart="667.00">
        <walk edges="TorPl_2_1 TorPl_2_2 RidGa_1_1"/>
    </person>
    <person id="pedestrian162" depart="668.00">
        <walk edges="CheMe_1_1 TorPl_1_2 TorPl_2_3 RidGa_2_1"/>
    </person>
    <person id="pedestrian163" depart="670.00">
        <walk edges="BynPl_2_2 BynPl_1_1 TorPl_1_4 TorPl_1_3 TorPl_1_2 HunSt_2_2"/>
    </person>
    <person id="pedestrian164" depart="671.00">
        <walk edges="BynPl_2_3 TorPl_1_4 TorPl_1_3 TorPl_1_2 TorPl_1_1"/>
    </person>
    <person id="pedestrian165" depart="671.00">
        <walk edges="GowSt_1_1 TorPl_1_4 MalSt_1_1"/>
    </person>
    <person id="pedestrian166" depart="673.00">
        <walk edges="MalSt_1_1 BynPl_2_3 BynPl_2_2 BynPl_2_1 GorSq_2_2"/>
    </person>
    <person id="pedestrian167" depart="673.00">
        <walk edges="BynPl_2_3"/>
    </person>
    <person id="pedestrian168" depart="682.00">
        <walk edges="RidGa_2_1 TorPl_2_3 TorPl_2_4"/>
    </person>
    <person id="pedestrian169" depart="682.00">
        <walk edges="RidGa_1_1 TorPl_2_3 TorPl_1_2 CheMe_1_1"/>
    </person>
    <person id="pedestrian170" depart="685.00">
        <walk edges="GowSt_2_1 TorPl_2_1"/>
    </person>
    <person id="pedestrian171" depart="697.00">
        <walk edges="HunSt_1_1 TorPl_2_3"/>
    </person>
    <person id="pedestrian172" depart="704.00">
        <walk edges="BynPl_1_3 BynPl_2_2"/>
    </person>
    <person id="pedestrian173" depart="705.00">
        <walk edges="GorSq_1_3 GorSq_1_2 BynPl_1_3 BynPl_1_2 BynPl_1_1 TorPl_1_4 TorPl_2_2 TorPl_2_3 HunSt_1_2"/>
    </person>
    <person id="pedestrian174" depart="706.00">
        <walk edges="TorPl_2_1 BynPl_2_3 BynPl_2_2"/>
    </person>
    <person id="pedestrian175" depart="707.00">
        <walk edges="TorPl_1_1 TorPl_2_3 TorPl_2_2"/>
    </person>
    <person id="pedestrian176" depart="711.00">
        <walk edges="GorSq_1_3 GorSq_1_2 BynPl_1_3 BynPl_1_2 BynPl_1_1 TorPl_1_4 GowSt_1_2"/>
    </person>
    <person id="pedestrian177" depart="713.00">
        <walk edges="HunSt_2_2 TorPl_1_2 TorPl_1_3 TorPl_1_4 MalSt_1_1"/>
    </person>
    <person id="pedestrian178" depart="713.00">
        <walk edges="HunSt_2_2 TorPl_2_3 TorPl_2_2 GowSt_2_1"/>
    </person>
    <person id="pedestrian179" depart="714.00">
        <walk edges="HunSt_2_2 TorPl_1_2"/>
    </person>
    <person id="pedestrian180" depart="717.00">
        <walk edges="TorPl_1_3 CheMe_2_1"/>
    </person>
    <person id="pedestrian181" depart="718.00">
        <walk edges="TorPl_1_4 BynPl_1_1 BynPl_2_2 BynPl_2_1"/>
    </person>
    <person id="pedestrian182" depart="719.00">
        <walk edges="GowSt_2_2 TorPl_1_4 MalPl_2_1"/>
    </person>
    <person id="pedestrian183" depart="723.00">
        <walk edges="TorPl_2_4 TorPl_1_2 TorPl_1_3 TorPl_1_4 BynPl_1_1"/>
    </person>
    <person id="pedestrian184" depart="726.00">
        <walk edges="TorPl_2_4 TorPl_1_2 TorPl_1_3 GowSt_1_1"/>
    </person>
    <person id="pedestrian185" depart="727.00">
        <walk edges="GorSq_2_3 BynPl_1_3 BynPl_1_2 BynPl_1_1 TorPl_1_4 TorPl_2_2 RidGa_1_1"/>
    </person>
    <person id="pedestrian186" depart="737.00">
        <walk edges="TorPl_1_3 TorPl_1_4 BynPl_1_1 BynPl_1_2"/>
    </person>
    <person id="pedestrian187" depart="742.00">
        <walk edges="GorSq_1_3 GorSq_1_2 BynPl_1_3 BynPl_1_2 BynPl_1_1 TorPl_1_4 TorPl_2_2 TorPl_2_3 HunSt_1_2"/>
    </person>
    <person id="pedestrian188" depart="742.00">
        <walk edges="BynPl_1_3 BynPl_1_2 BynPl_1_1 TorPl_1_4 TorPl_1_3 TorPl_1_2 HunSt_2_1"/>
    </person>
    <person id="pedestrian189" depart="742.00">
        <walk edges="HunSt_2_1 TorPl_2_3 TorPl_2_2 TorPl_2_1 BynPl_2_3 BynPl_2_2 BynPl_2_1 GorSq_2_2"/>
    </person>
    <person id="pedestrian190" depart="755.00">
        <walk edges="TorPl_2_1 TorPl_2_2 TorPl_2_3 TorPl_1_1"/>
    </person>
    <person id="pedestrian191" depart="757.00">
        <walk edges="HunSt_1_2 TorPl_1_2"/>
    </person>
    <person id="pedestrian192" depart="768.00">
        <walk edges="GowSt_1_1 TorPl_1_4 BynPl_1_1 BynPl_2_2"/>
    </person>
    <person id="pedestrian193" depart="768.00">
        <walk edges="MalPl_1_1 BynPl_1_1 BynPl_1_2 BynPl_1_3 GorSq_1_2 GorSq_1_3"/>
    </person>
    <person id="pedestrian194" depart="770.00">
        <walk edges="GorSq_2_2 BynPl_2_1 BynPl_2_2 BynPl_2_3 TorPl_2_1 TorPl_2_2 TorPl_2_3 HunSt_2_1"/>
    </person>
    <person id="pedestrian195" depart="772.00">
        <walk edges="GorSq_2_1 GorSq_2_2 BynPl_2_1 BynPl_2_2 BynPl_1_1"/>
    </person>
    <person id="pedestrian196" depart="776.00">
        <walk edges="TorPl_1_4 BynPl_1_1"/>
    </person>
    <person id="pedestrian197" depart="776.00">
        <walk edges="TorPl_2_2 TorPl_2_1 BynPl_2_3 BynPl_2_2"/>
    </person>
    <person id="pedestrian198" depart="777.00">
        <walk edges="BynPl_2_1 GorSq_2_2 GorSq_2_1"/>
    </person>
    <person id="pedestrian199" depart="780.00">
        <walk edges="GowSt_1_2 TorPl_1_4 MalPl_1_1"/>
    </person>
    <person id="pedestrian200" depart="781.00">
        <walk edges="GowSt_2_1 TorPl_2_1 MalSt_1_1"/>
    </person>
    <person id="pedestrian201" depart="788.00">
        <walk edges="GorSq_1_3 GorSq_1_2"/>
    </person>
    <person id="pedestrian202" depart="789.00">
        <walk edges="GorSq_1_3 GorSq_1_2 BynPl_1_3 BynPl_1_2 BynPl_1_1 TorPl_1_4 TorPl_2_2 TorPl_2_3"/>
    </person>
    <person id="pedestrian203" depart="790.00">
        <walk edges="GowSt_1_2 TorPl_1_4"/>
    </person>
    <person id="pedestrian204" depart="802.00">
        <walk edges="MalPl_2_1 TorPl_1_4"/>
    </person>
    <person id="pedestrian205" depart="804.00">
        <walk edges="TorPl_2_3 TorPl_2_2 TorPl_2_1 BynPl_2_3 BynPl_2_2 BynPl_2_1"/>
    </person>
    <person id="pedestrian206" depart="805.00">
        <walk edges="TorPl_2_3 TorPl_2_2 TorPl_2_1 BynPl_2_3"/>
    </person>
    <person id="pedestrian207" depart="806.00">
        <walk edges="TorPl_1_2 TorPl_1_3 TorPl_1_4 BynPl_1_1 BynPl_1_2 BynPl_1_3"/>
    </person>
    <person id="pedestrian208" depart="812.00">
        <walk edges="HunSt_2_1 TorPl_2_3 TorPl_2_2 TorPl_2_1 MalSt_1_1"/>
    </person>
    <person id="pedestrian209" depart="817.00">
        <walk edges="TorPl_1_3 TorPl_1_4 MalPl_1_1"/>
    </person>
    <person id="pedestrian210" depart="825.00">
        <walk edges="BynPl_1_3 GorSq_1_2 GorSq_1_3"/>
    </person>
    <person id="pedestrian211" depart="826.00">
        <walk edges="BynPl_2_1 BynPl_2_2 BynPl_2_3 MalSt_1_1"/>
    </person>
    <person id="pedestrian212" depart="828.00">
        <walk edges="HunSt_2_1 TorPl_2_3 TorPl_2_2 TorPl_2_1 BynPl_2_3 BynPl_2_2 BynPl_2_1"/>
    </person>
    <person id="pedestrian213" depart="828.00">
        <walk edges="TorPl_2_1 BynPl_2_3 BynPl_2_2 BynPl_1_3"/>
    </person>
    <person id="pedestrian214" depart="832.00">
        <walk edges="MalPl_2_1 TorPl_2_1"/>
    </person>
    <person id="pedestrian215" depart="834.00">
        <walk edges="GowSt_1_2 TorPl_2_2 TorPl_2_3 TorPl_2_4"/>
    </person>
    <person id="pedestrian216" depart="834.00">
        <walk edges="TorPl_2_1 TorPl_2_2 RidGa_2_1"/>
    </person>
    <person id="pedestrian217" depart="835.00">
        <walk edges="GorSq_2_2 BynPl_2_1 BynPl_2_2 BynPl_2_3 TorPl_2_1 GowSt_2_1"/>
    </person>
    <person id="pedestrian218" depart="836.00">
        <walk edges="TorPl_1_4 TorPl_1_3 TorPl_1_2 TorPl_1_1"/>
    </person>
    <person id="pedestrian219" depart="837.00">
        <walk edges="HunSt_2_1 TorPl_2_4"/>
    </person>
    <person id="pedestrian220" depart="841.00">
        <walk edges="HunSt_1_1 TorPl_1_2"/>
    </person>
    <person id="pedestrian221" depart="847.00">
        <walk edges="MalPl_2_1 TorPl_1_4 TorPl_1_3 TorPl_1_2 TorPl_2_4"/>
    </person>
    <person id="pedestrian222" depart="854.00">
        <walk edges="TorPl_1_2 TorPl_1_3"/>
    </person>
    <person id="pedestrian223" depart="855.00">
        <walk edges="HunSt_2_2 TorPl_1_2"/>
    </person>
    <person id="pedestrian224" depart="857.00">
        <walk edges="RidGa_2_1 TorPl_2_2 TorPl_1_4 BynPl_1_1 BynPl_1_2 BynPl_1_3 GorSq_1_2"/>
    </person>
    <person id="pedestrian225" depart="858.00">
        <walk edges="TorPl_2_3 TorPl_2_2"/>
    </person>