<?xml version="1.0" encoding="UTF-8"?>

<!-- generated on 2025-12-31 15:03:38.871771 by Eclipse SUMO randomTrips.py UNKNOWN
<configuration>
    <net-file value="../networks/demo/main.net.xml"/>
    <output-trip-file value="../routes/demo/train/3/pedestrian.trips.xml"/>
    <route-file value="../routes/demo/train/3/pedestrian.rou.xml"/>
    <pedestrians value="True"/>
    <prefix value="pedestrian"/>
    <seed value="3"/>
    <insertion-density value="200.0"/>
    <binomial value="100"/>
</configuration>
-->

<!-- generated on 2025-12-31T15:03:38.855342+00:00 by Eclipse SUMO duarouter 1.25.0
<duarouterConfiguration xmlns:xsi="http://www.w3.org/2001/XMLSchema-instance" xsi:noNamespaceSchemaLocation="http://sumo.dlr.de/xsd/duarouterConfiguration.xsd">

    <input>
        <net-file value="../networks/demo/main.net.xml"/>
        <route-files value="../routes/demo/train/3/pedestrian.trips.xml"/>
    </input>

    <output>
        <output-file value="../routes/demo/train/3/pedestrian.rou.xml"/>
        <alternatives-output value="NUL"/>
    </output>

    <time>
        <begin value="0"/>
        <end value="3600.0"/>
    </time>

    <report>
        <no-warnings value="true"/>
        <ignore-errors value="true"/>
        <no-step-log value="true"/>
    </report>

</duarouterConfiguration>
-->

<routes xmlns:xsi="http://www.w3.org/2001/XMLSchema-instance" xsi:noNamespaceSchemaLocation="http://sumo.dlr.de/xsd/routes_file.xsd">
    <person id="pedestrian0" depart="2.00">
        <walk edges="BynPl_1_2 BynPl_2_2"/>
    </person>
    <person id="pedestrian1" depart="5.00">
        <walk edges="RidGa_2_1 TorPl_2_2 TorPl_1_4 MalPl_2_1"/>
    </person>
    <person id="pedestrian2" depart="5.00">
        <walk edges="CheMe_2_1 TorPl_1_2 TorPl_1_1"/>
    </person>
    <person id="pedestrian3" depart="13.00">
        <walk edges="GorSq_1_3 GorSq_1_2 BynPl_1_3 BynPl_2_2 BynPl_2_3 MalSt_2_1"/>
    </person>
    <person id="pedestrian4" depart="17.00">
        <walk edges="CheMe_1_1 CheMe_2_1"/>
    </person>
    <person id="pedestrian5" depart="17.00">
        <walk edges="GowSt_1_2 GowSt_2_2"/>
    </person>
    <person id="pedestrian6" depart="17.00">
        <walk edges="MalPl_2_1 TorPl_1_4 GowSt_2_2"/>
    </person>
    <person id="pedestrian7" depart="18.00">
        <walk edges="CheMe_2_1 TorPl_1_3 TorPl_1_4 BynPl_1_1 BynPl_1_2 BynPl_1_3 GorSq_1_1"/>
    </person>
    <person id="pedestrian8" depart="20.00">
        <walk edges="CheMe_1_1 TorPl_1_2 TorPl_2_4"/>
    </person>
    <person id="pedestrian9" depart="23.00">
        <walk edges="TorPl_1_3 TorPl_1_4 BynPl_1_1 BynPl_2_2 BynPl_2_1 GorSq_2_2 GorSq_2_1"/>
    </person>
    <person id="pedestrian10" depart="24.00">
        <walk edges="TorPl_2_1 BynPl_2_3 BynPl_2_2 BynPl_2_1 GorSq_2_2 GorSq_2_1"/>
    </person>
    <person id="pedestrian11" depart="25.00">
        <walk edges="RidGa_1_1 RidGa_2_1"/>
    </person>
    <person id="pedestrian12" depart="28.00">
        <walk edges="GowSt_1_2 TorPl_1_3 CheMe_1_1"/>
    </person>
    <person id="pedestrian13" depart="33.00">
        <walk edges="BynPl_1_3 BynPl_1_2 BynPl_1_1 TorPl_1_4 TorPl_1_3 CheMe_1_1"/>
    </person>
    <person id="pedestrian14" depart="34.00">
        <walk edges="GorSq_1_3 GorSq_1_2 BynPl_1_3 BynPl_1_2 BynPl_1_1 TorPl_1_4 TorPl_1_3 TorPl_1_2 HunSt_1_1"/>
    </person>
    <person id="pedestrian15" depart="39.00">
        <walk edges="BynPl_2_2 BynPl_2_3 TorPl_2_1 TorPl_2_2 TorPl_2_3"/>
    </person>
    <person id="pedestrian16" depart="50.00">
        <walk edges="TorPl_1_4 BynPl_2_3"/>
    </person>
    <person id="pedestrian17" depart="54.00">
        <walk edges="MalPl_1_1 BynPl_2_3"/>
    </person>
    <person id="pedestrian18" depart="59.00">
        <walk edges="MalSt_1_1 TorPl_2_1 TorPl_2_2 TorPl_2_3"/>
    </person>
    <person id="pedestrian19" depart="61.00">
        <walk edges="GorSq_1_1 BynPl_1_3 BynPl_2_1"/>
    </person>
    <person id="pedestrian20" depart="62.00">
        <walk edges="GowSt_2_1 TorPl_2_1 BynPl_2_3 BynPl_2_2 BynPl_2_1 GorSq_2_2"/>
    </person>
    <person id="pedestrian21" depart="66.00">
        <walk edges="HunSt_1_1 TorPl_1_2 TorPl_1_3 TorPl_1_4 BynPl_1_1 BynPl_2_2"/>
    </person>
    <person id="pedestrian22" depart="67.00">
        <walk edges="BynPl_2_2 BynPl_2_3 TorPl_2_1 TorPl_2_2"/>
    </person>
    <person id="pedestrian23" depart="86.00">
        <walk edges="HunSt_2_1 TorPl_2_3 TorPl_2_2 TorPl_2_1 BynPl_2_3 BynPl_2_2 BynPl_2_1 GorSq_2_2 GorSq_2_1"/>
    </person>
    <person id="pedestrian24" depart="92.00">
        <walk edges="GorSq_2_2 GorSq_1_2 BynPl_1_3"/>
    </person>
    <person id="pedestrian25" depart="92.00">
        <walk edges="BynPl_1_2 BynPl_1_3 GorSq_1_2 GorSq_1_3"/>
    </person>
    <person id="pedestrian26" depart="93.00">
        <walk edges="BynPl_1_2 BynPl_1_3 GorSq_1_2"/>
    </person>
    <person id="pedestrian27" depart="93.00">
        <walk edges="GowSt_1_1 TorPl_1_3 TorPl_1_2 HunSt_2_1"/>
    </person>
    <person id="pedestrian28" depart="94.00">
        <walk edges="TorPl_1_4 MalPl_2_1"/>
    </person>
    <person id="pedestrian29" depart="95.00">
        <walk edges="HunSt_1_2 TorPl_2_3 TorPl_2_2 GowSt_1_1"/>
    </person>
    <person id="pedestrian30" depart="96.00">
        <walk edges="MalPl_2_1 TorPl_1_4 GowSt_1_2"/>
    </person>
    <person id="pedestrian31" depart="97.00">
        <walk edges="TorPl_1_4 TorPl_1_3"/>
    </person>
    <person id="pedestrian32" depart="98.00">
        <walk edges="BynPl_2_1 BynPl_2_2 BynPl_1_1 TorPl_1_4 TorPl_1_3 CheMe_1_1"/>
    </person>
    <person id="pedestrian33" depart="98.00">
        <walk edges="BynPl_2_2 BynPl_2_3 TorPl_2_1 TorPl_2_2 TorPl_2_3"/>
    </person>
    <person id="pedestrian34" depart="101.00">
        <walk edges="GowSt_1_1 TorPl_1_4 BynPl_2_3"/>
    </person>
    <person id="pedestrian35" depart="102.00">
        <walk edges="MalSt_2_1 BynPl_2_3 BynPl_2_2 BynPl_1_3 GorSq_1_1"/>
    </person>
    <person id="pedestrian36" depart="102.00">
        <walk edges="BynPl_2_3 TorPl_2_1 TorPl_2_2 RidGa_1_1"/>
    </person>
    <person id="pedestrian37" depart="102.00">
        <walk edges="RidGa_1_1 TorPl_2_2 TorPl_1_4"/>
    </person>
    <person id="pedestrian38" depart="105.00">
        <walk edges="TorPl_2_4 TorPl_1_2 CheMe_1_1"/>
    </person>
    <person id="pedestrian39" depart="108.00">
        <walk edges="TorPl_2_4 TorPl_2_3 TorPl_2_2 TorPl_2_1 BynPl_2_3 BynPl_2_2 BynPl_2_1"/>
    </person>
    <person id="pedestrian40" depart="113.00">
        <walk edges="TorPl_1_4 BynPl_1_1 BynPl_2_2 BynPl_2_1 GorSq_2_2"/>
    </person>
    <person id="pedestrian41" depart="117.00">
        <walk edges="BynPl_1_2 BynPl_1_1 TorPl_1_4 TorPl_1_3 TorPl_1_2 HunSt_1_1"/>
    </person>
    <person id="pedestrian42" depart="125.00">
        <walk edges="TorPl_2_4 HunSt_2_2"/>
    </person>
    <person id="pedestrian43" depart="126.00">
        <walk edges="GorSq_1_1 BynPl_1_3 BynPl_1_2 BynPl_1_1 TorPl_1_4 GowSt_2_2"/>
    </person>
    <person id="pedestrian44" depart="127.00">
        <walk edges="GowSt_2_2 TorPl_2_2 RidGa_1_1"/>
    </person>
    <person id="pedestrian45" depart="130.00">
        <walk edges="RidGa_2_1 TorPl_2_3 TorPl_2_4"/>
    </person>
    <person id="pedestrian46" depart="131.00">
        <walk edges="TorPl_1_3 TorPl_2_2"/>
    </person>
    <person id="pedestrian47" depart="135.00">
        <walk edges="GorSq_1_1 BynPl_1_3 BynPl_1_2 BynPl_1_1 TorPl_1_4 TorPl_1_3 TorPl_1_2 TorPl_2_4"/>
    </person>
    <person id="pedestrian48" depart="137.00">
        <walk edges="MalSt_2_1 TorPl_2_1 TorPl_1_3 TorPl_1_2"/>
    </person>
    <person id="pedestrian49" depart="138.00">
        <walk edges="BynPl_1_1 TorPl_1_4 TorPl_1_3 TorPl_1_2 TorPl_2_4"/>
    </person>
    <person id="pedestrian50" depart="143.00">
        <walk edges="HunSt_2_1 TorPl_1_1"/>
    </person>
    <person id="pedestrian51" depart="146.00">
        <walk edges="GowSt_1_1 TorPl_1_4 BynPl_1_1 BynPl_2_2 BynPl_2_1"/>
    </person>
    <person id="pedestrian52" depart="149.00">
        <walk edges="TorPl_2_3 TorPl_2_2 TorPl_2_1 MalSt_1_1"/>
    </person>
    <person id="pedestrian53" depart="153.00">
        <walk edges="TorPl_1_3 TorPl_1_4 BynPl_1_1"/>
    </person>
    <person id="pedestrian54" depart="158.00">
        <walk edges="TorPl_2_3 TorPl_1_2 CheMe_1_1"/>
    </person>
    <person id="pedestrian55" depart="166.00">
        <walk edges="CheMe_2_1 TorPl_1_2 HunSt_2_2"/>
    </person>
    <person id="pedestrian56" depart="169.00">
        <walk edges="MalPl_2_1 BynPl_1_1 BynPl_1_2 BynPl_1_3"/>
    </person>
    <person id="pedestrian57" depart="181.00">
        <walk edges="GowSt_1_2 TorPl_2_1 BynPl_2_3 BynPl_2_2 BynPl_2_1 GorSq_2_2"/>
    </person>
    <person id="pedestrian58" depart="182.00">
        <walk edges="TorPl_1_3 TorPl_1_4 BynPl_1_1 BynPl_2_2 BynPl_2_1 GorSq_2_2 GorSq_2_1"/>
    </person>
    <person id="pedestrian59" depart="183.00">
        <walk edges="MalPl_2_1 TorPl_1_4 TorPl_1_3 TorPl_1_2 HunSt_2_1"/>
    </person>
    <person id="pedestrian60" depart="184.00">
        <walk edges="CheMe_2_1 TorPl_1_3 TorPl_1_4 BynPl_1_1 BynPl_2_2 BynPl_2_1"/>
    </person>
    <person id="pedestrian61" depart="185.00">
        <walk edges="BynPl_2_2 BynPl_2_3 TorPl_2_1 GowSt_2_1"/>
    </person>
    <person id="pedestrian62" depart="185.00">
        <walk edges="TorPl_1_1 TorPl_2_4"/>
    </person>
    <person id="pedestrian63" depart="193.00">
        <walk edges="BynPl_2_1 BynPl_1_3"/>
    </person>
    <person id="pedestrian64" depart="194.00">
        <walk edges="TorPl_1_1 TorPl_1_2 CheMe_2_1"/>
    </person>
    <person id="pedestrian65" depart="204.00">
        <walk edges="GowSt_1_1 TorPl_1_4 BynPl_1_1 BynPl_2_2"/>
    </person>
    <person id="pedestrian66" depart="204.00">
        <walk edges="HunSt_1_1 TorPl_1_2 CheMe_1_1"/>
    </person>
    <person id="pedestrian67" depart="208.00">
        <walk edges="HunSt_1_1"/>
    </person>
    <person id="pedestrian68" depart="211.00">
        <walk edges="TorPl_1_2 TorPl_2_3 RidGa_1_1"/>
    </person>
    <person id="pedestrian69" depart="213.00">
        <walk edges="MalSt_2_1 BynPl_1_1"/>
    </person>
    <person id="pedestrian70" depart="214.00">
        <walk edges="TorPl_2_2 TorPl_2_1 BynPl_2_3 BynPl_2_2 BynPl_2_1 GorSq_2_2"/>
    </person>
    <person id="pedestrian71" depart="215.00">
        <walk edges="CheMe_1_1 TorPl_1_2 HunSt_2_1"/>
    </person>
    <person id="pedestrian72" depart="219.00">
        <walk edges="TorPl_2_4 TorPl_1_2 CheMe_2_1"/>
    </person>
    <person id="pedestrian73" depart="221.00">
        <walk edges="BynPl_1_3 BynPl_1_2 BynPl_1_1 TorPl_1_4 TorPl_1_3 TorPl_1_2"/>
    </person>
    <person id="pedestrian74" depart="222.00">
        <walk edges="CheMe_1_1 TorPl_1_2 HunSt_1_2"/>
    </person>
    <person id="pedestrian75" depart="226.00">
        <walk edges="TorPl_1_4"/>
    </person>
    <person id="pedestrian76" depart="227.00">
        <walk edges="CheMe_1_1 TorPl_1_2 HunSt_1_2"/>
    </person>
    <person id="pedestrian77" depart="231.00">
        <walk edges="GowSt_1_2 TorPl_1_3 TorPl_1_2"/>
    </person>
    <person id="pedestrian78" depart="244.00">
        <walk edges="MalSt_1_1 TorPl_2_1 TorPl_2_2 TorPl_2_3 HunSt_2_1"/>
    </person>
    <person id="pedestrian79" depart="251.00">
        <walk edges="TorPl_2_2 TorPl_1_4 BynPl_1_1 BynPl_1_2 BynPl_1_3 GorSq_1_2"/>
    </person>
    <person id="pedestrian80" depart="257.00">
        <walk edges="BynPl_2_3 BynPl_2_2 BynPl_1_3 GorSq_2_3"/>
    </person>
    <person id="pedestrian81" depart="264.00">
        <walk edges="TorPl_1_2 TorPl_2_4"/>
    </person>
    <person id="pedestrian82" depart="282.00">
        <walk edges="GowSt_1_1 GowSt_1_2"/>
    </person>
    <person id="pedestrian83" depart="288.00">
        <walk edges="GorSq_1_3 GorSq_1_2 BynPl_1_3 BynPl_1_2 BynPl_1_1 TorPl_1_4"/>
    </person>
    <person id="pedestrian84" depart="291.00">
        <walk edges="GorSq_1_3 GorSq_1_2 GorSq_2_3"/>
    </person>
    <person id="pedestrian85" depart="300.00">
        <walk edges="TorPl_1_3 TorPl_1_2 TorPl_2_3"/>
    </person>
    <person id="pedestrian86" depart="302.00">
        <walk edges="GowSt_2_2 GowSt_2_1"/>
    </person>
    <person id="pedestrian87" depart="315.00">
        <walk edges="BynPl_1_1 TorPl_1_4 TorPl_1_3 TorPl_1_2 HunSt_1_1"/>
    </person>
    <person id="pedestrian88" depart="316.00">
        <walk edges="HunSt_1_2 TorPl_2_3 TorPl_2_2 GowSt_1_2"/>
    </person>
    <person id="pedestrian89" depart="321.00">
        <walk edges="TorPl_1_3 TorPl_1_4 BynPl_1_1 BynPl_1_2 BynPl_1_3"/>
    </person>
    <person id="pedestrian90" depart="323.00">
        <walk edges="BynPl_1_2 BynPl_2_2 BynPl_2_1 GorSq_2_2"/>
    </person>
    <person id="pedestrian91" depart="325.00">
        <walk edges="HunSt_1_2 HunSt_2_1"/>
    </person>
    <person id="pedestrian92" depart="330.00">
        <walk edges="GorSq_2_3 BynPl_1_3 BynPl_1_2 BynPl_1_1 TorPl_1_4 TorPl_2_2 TorPl_2_3"/>
    </person>
    <person id="pedestrian93" depart="333.00">
        <walk edges="CheMe_1_1 TorPl_1_3 TorPl_1_4 BynPl_1_1 BynPl_2_2 BynPl_2_1 GorSq_2_2"/>
    </person>
    <person id="pedestrian94" depart="333.00">
        <walk edges="TorPl_1_4 TorPl_1_3 CheMe_1_1"/>
    </person>
    <person id="pedestrian95" depart="336.00">
        <walk edges="TorPl_2_4 TorPl_1_2 TorPl_1_3 TorPl_1_4 BynPl_1_1 BynPl_1_2"/>
    </person>
    <person id="pedestrian96" depart="346.00">
        <walk edges="BynPl_1_3 BynPl_1_2 BynPl_1_1 TorPl_1_4"/>
    </person>
    <person id="pedestrian97" depart="347.00">
        <walk edges="RidGa_1_1 TorPl_2_3 TorPl_1_2 CheMe_1_1"/>
    </person>
    <person id="pedestrian98" depart="353.00">
        <walk edges="BynPl_2_1 BynPl_2_2 BynPl_1_1 TorPl_1_4 TorPl_1_3"/>
    </person>
    <person id="pedestrian99" depart="353.00">
        <walk edges="RidGa_2_1 TorPl_2_2 TorPl_1_4"/>
    </person>
    <person id="pedestrian100" depart="356.00">
        <walk edges="BynPl_1_3 BynPl_1_2 BynPl_1_1"/>
    </person>
    <person id="pedestrian101" depart="358.00">
        <walk edges="GowSt_1_2 TorPl_1_4 BynPl_1_1 BynPl_1_2 BynPl_1_3 GorSq_1_2 GorSq_1_3"/>
    </person>
    <person id="pedestrian102" depart="359.00">
        <walk edges="GorSq_1_1 GorSq_1_2"/>
    </person>
    <person id="pedestrian103" depart="363.00">
        <walk edges="TorPl_1_1 TorPl_1_2 TorPl_1_3 TorPl_1_4 BynPl_1_1 BynPl_2_2"/>
    </person>
    <person id="pedestrian104" depart="364.00">
        <walk edges="BynPl_2_1 BynPl_2_2 BynPl_1_1 MalPl_2_1"/>
    </person>
    <person id="pedestrian105" depart="365.00">
        <walk edges="TorPl_1_4 BynPl_1_1 BynPl_1_2 BynPl_1_3 GorSq_1_2"/>
    </person>
    <person id="pedestrian106" depart="369.00">
        <walk edges="HunSt_2_2 TorPl_1_2 TorPl_1_3 TorPl_1_4 BynPl_1_1 BynPl_1_2 BynPl_1_3 GorSq_1_1"/>
    </person>
    <person id="pedestrian107" depart="370.00">
        <walk edges="GowSt_2_1 TorPl_1_4 BynPl_1_1 BynPl_1_2 BynPl_1_3 GorSq_1_2"/>
    </person>
    <person id="pedestrian108" depart="372.00">
        <walk edges="TorPl_2_1 GowSt_1_1"/>
    </person>
    <person id="pedestrian109" depart="383.00">
        <walk edges="BynPl_1_3 BynPl_2_2 BynPl_2_3 MalSt_1_1"/>
    </person>
    <person id="pedestrian110" depart="384.00">
        <walk edges="BynPl_2_2 BynPl_1_1 TorPl_1_4 TorPl_1_3 CheMe_2_1"/>
    </person>
    <person id="pedestrian111" depart="385.00">
        <walk edges="TorPl_2_2 TorPl_2_1"/>
    </person>
    <person id="pedestrian112" depart="386.00">
        <walk edges="GorSq_1_2 BynPl_1_3"/>
    </person>
    <person id="pedestrian113" depart="386.00">
        <walk edges="GowSt_1_2 TorPl_1_4 BynPl_1_1 BynPl_1_2 BynPl_1_3 GorSq_1_2 GorSq_1_3"/>
    </person>
    <person id="pedestrian114" depart="386.00">
        <walk edges="GowSt_2_1 GowSt_1_2"/>
    </person>
    <person id="pedestrian115" depart="387.00">
        <walk edges="BynPl_1_3 BynPl_1_2 BynPl_1_1 TorPl_1_4 TorPl_1_3 TorPl_1_2 HunSt_2_2"/>
    </person>
    <person id="pedestrian116" depart="389.00">
        <walk edges="TorPl_1_3 TorPl_1_4 BynPl_1_1 BynPl_1_2 BynPl_1_3"/>
    </person>
    <person id="pedestrian117" depart="392.00">
        <walk edges="CheMe_1_1 CheMe_2_1"/>
    </person>
    <person id="pedestrian118" depart="395.00">
        <walk edges="RidGa_2_1 TorPl_2_3 TorPl_1_2"/>
    </person>
    <person id="pedestrian119" depart="401.00">
        <walk edges="TorPl_2_1 BynPl_2_3 BynPl_2_2 BynPl_2_1"/>
    </person>
    <person id="pedestrian120" depart="403.00">
        <walk edges="GorSq_2_3 BynPl_1_3 BynPl_1_2 BynPl_1_1 TorPl_1_4"/>
    </person>
    <person id="pedestrian121" depart="405.00">
        <walk edges="MalPl_1_1 TorPl_1_4 GowSt_1_2"/>
    </person>
    <person id="pedestrian122" depart="408.00">
        <walk edges="BynPl_2_3 BynPl_2_2 BynPl_1_3 GorSq_1_2 GorSq_1_3"/>
    </person>
    <person id="pedestrian123" depart="411.00">
        <walk edges="TorPl_1_2 HunSt_2_2"/>
    </person>
    <person id="pedestrian124" depart="414.00">
        <walk edges="TorPl_1_4 TorPl_1_3 TorPl_1_2 HunSt_2_1"/>
    </person>
    <person id="pedestrian125" depart="418.00">
        <walk edges="GorSq_1_2 BynPl_1_3 BynPl_1_2 BynPl_1_1 TorPl_1_4 TorPl_1_3 TorPl_1_2 HunSt_1_1"/>
    </person>
    <person id="pedestrian126" depart="428.00">
        <walk edges="MalSt_1_1 TorPl_1_4 TorPl_1_3 CheMe_1_1"/>
    </person>
    <person id="pedestrian127" depart="431.00">
        <walk edges="MalPl_2_1 TorPl_1_4"/>
    </person>
    <person id="pedestrian128" depart="434.00">
        <walk edges="GorSq_1_3 GorSq_1_2 BynPl_1_3"/>
    </person>
    <person id="pedestrian129" depart="435.00">
        <walk edges="HunSt_2_2"/>
    </person>
    <person id="pedestrian130" depart="441.00">
        <walk edges="GowSt_2_1 TorPl_2_2 RidGa_1_1"/>
    </person>
    <person id="pedestrian131" depart="445.00">
        <walk edges="HunSt_2_2 TorPl_1_2 TorPl_1_3 TorPl_1_4 BynPl_2_3"/>
    </person>
    <person id="pedestrian132" depart="451.00">
        <walk edges="GorSq_2_3 BynPl_1_3 BynPl_1_2 BynPl_1_1 TorPl_1_4 TorPl_2_2 RidGa_1_1"/>
    </person>
    <person id="pedestrian133" depart="451.00">
        <walk edges="GorSq_1_1 BynPl_1_3 BynPl_1_2 BynPl_1_1 TorPl_1_4 TorPl_1_3 TorPl_1_2 TorPl_1_1"/>
    </person>
    <person id="pedestrian134" depart="453.00">
        <walk edges="CheMe_1_1 TorPl_1_3 TorPl_1_4 BynPl_1_1 BynPl_1_2 BynPl_1_3 GorSq_2_3"/>
    </person>
    <person id="pedestrian135" depart="453.00">
        <walk edges="GowSt_2_2 TorPl_1_4 BynPl_1_1"/>
    </person>
    <person id="pedestrian136" depart="454.00">
        <walk edges="BynPl_1_2 BynPl_1_1 TorPl_1_4 TorPl_1_3 CheMe_1_1"/>
    </person>
    <person id="pedestrian137" depart="459.00">
        <walk edges="RidGa_2_1 TorPl_2_2 TorPl_1_4 BynPl_1_1 BynPl_1_2 BynPl_1_3 GorSq_1_2 GorSq_1_3"/>
    </person>
    <person id="pedestrian138" depart="461.00">
        <walk edges="GorSq_2_1 GorSq_1_2 BynPl_1_3 BynPl_1_2"/>
    </person>
    <person id="pedestrian139" depart="466.00">
        <walk edges="MalPl_2_1 TorPl_1_4 TorPl_1_3 TorPl_1_2"/>
    </person>
    <person id="pedestrian140" depart="469.00">
        <walk edges="TorPl_1_2 TorPl_1_3 TorPl_1_4 BynPl_1_1 BynPl_2_2 BynPl_2_1 GorSq_2_2"/>
    </person>
    <person id="pedestrian141" depart="470.00">
        <walk edges="TorPl_1_3 TorPl_1_4 BynPl_1_1 BynPl_1_2 BynPl_1_3 GorSq_1_2 GorSq_1_3"/>
    </person>
    <person id="pedestrian142" depart="471.00">
        <walk edges="MalPl_1_1 TorPl_1_4 TorPl_1_3 CheMe_1_1"/>
    </person>
    <person id="pedestrian143" depart="471.00">
        <walk edges="GorSq_2_2 BynPl_2_1 BynPl_2_2 BynPl_1_1 TorPl_1_4 TorPl_1_3 TorPl_1_2"/>
    </person>
    <person id="pedestrian144" depart="472.00">
        <walk edges="MalSt_2_1 BynPl_2_3 BynPl_2_2 BynPl_1_3 GorSq_1_2 GorSq_1_3"/>
    </person>
    <person id="pedestrian145" depart="474.00">
        <walk edges="MalSt_2_1 BynPl_2_3 BynPl_2_2 BynPl_1_3"/>
    </person>
    <person id="pedestrian146" depart="475.00">
        <walk edges="GowSt_2_2 TorPl_1_3 TorPl_1_2 TorPl_2_4"/>
    </person>
    <person id="pedestrian147" depart="476.00">
        <walk edges="GorSq_2_1 GorSq_2_2 BynPl_2_1 BynPl_2_2 BynPl_1_1"/>
    </person>
    <person id="pedestrian148" depart="477.00">
        <walk edges="RidGa_1_1 TorPl_2_2 TorPl_1_4 BynPl_1_1 BynPl_1_2 BynPl_1_3 GorSq_1_2"/>
    </person>
    <person id="pedestrian149" depart="482.00">
        <walk edges="GorSq_2_1 GorSq_2_2 BynPl_2_1 BynPl_2_2 BynPl_2_3"/>
    </person>
    <person id="pedestrian150" depart="486.00">
        <walk edges="TorPl_1_4 TorPl_1_3 TorPl_1_2"/>
    </person>
    <person id="pedestrian151" depart="489.00">
        <walk edges="TorPl_2_3 RidGa_2_1"/>
    </person>
    <person id="pedestrian152" depart="490.00">
        <walk edges="BynPl_1_1 MalSt_2_1"/>
    </person>
    <person id="pedestrian153" depart="491.00">
        <walk edges="CheMe_2_1 TorPl_1_3 TorPl_1_4 BynPl_1_1 BynPl_2_2"/>
    </person>
    <person id="pedestrian154" depart="497.00">
        <walk edges="TorPl_2_2 GowSt_2_1"/>
    </person>
    <person id="pedestrian155" depart="499.00">
        <walk edges="GowSt_1_2 TorPl_1_3 TorPl_1_2"/>
    </person>
    <person id="pedestrian156" depart="506.00">
        <walk edges="BynPl_2_3 BynPl_2_2 BynPl_2_1 GorSq_2_2"/>
    </person>
    <person id="pedestrian157" depart="509.00">
        <walk edges="BynPl_1_2 BynPl_1_1 TorPl_1_4 TorPl_1_3 TorPl_1_2 HunSt_2_2"/>
    </person>
    <person id="pedestrian158" depart="511.00">
        <walk edges="BynPl_2_1 BynPl_2_2 BynPl_1_1 TorPl_1_4 TorPl_1_3 TorPl_1_2 TorPl_1_1"/>
    </person>
    <person id="pedestrian159" depart="514.00">
        <walk edges="BynPl_1_1 BynPl_1_2 BynPl_1_3 GorSq_1_2"/>
    </person>
    <person id="pedestrian160" depart="516.00">
        <walk edges="RidGa_1_1 TorPl_2_3 HunSt_2_1"/>
    </person>
    <person id="pedestrian161" depart="516.00">
        <walk edges="TorPl_1_4 TorPl_1_3 TorPl_1_2 HunSt_1_1"/>
    </person>
    <person id="pedestrian162" depart="525.00">
        <walk edges="GorSq_2_1 GorSq_2_2 BynPl_2_1 BynPl_2_2 BynPl_2_3 TorPl_2_1 TorPl_2_2 TorPl_2_3 HunSt_1_2"/>
    </person>
    <person id="pedestrian163" depart="529.00">
        <walk edges="BynPl_1_3 BynPl_1_2 BynPl_1_1 TorPl_1_4 GowSt_2_1"/>
    </person>
    <person id="pedestrian164" depart="533.00">
        <walk edges="BynPl_1_2 BynPl_1_3 GorSq_1_1"/>
    </person>
    <person id="pedestrian165" depart="535.00">
        <walk edges="TorPl_2_4 TorPl_1_2 TorPl_1_3 GowSt_2_2"/>
    </person>
    <person id="pedestrian166" depart="535.00">
        <walk edges="MalPl_1_1 MalPl_2_1"/>
    </person>
    <person id="pedestrian167" depart="536.00">
        <walk edges="GowSt_1_2 TorPl_2_1 BynPl_2_3 BynPl_2_2 BynPl_2_1 GorSq_2_2 GorSq_2_1"/>
    </person>
    <person id="pedestrian168" depart="538.00">
        <walk edges="MalPl_1_1 TorPl_1_4 GowSt_1_2"/>
    </person>
    <person id="pedestrian169" depart="543.00">
        <walk edges="RidGa_2_1 TorPl_2_2 GowSt_2_2"/>
    </person>
    <person id="pedestrian170" depart="553.00">
        <walk edges="RidGa_1_1 TorPl_2_3 HunSt_1_1"/>
    </person>
    <person id="pedestrian171" depart="556.00">
        <walk edges="HunSt_2_1 TorPl_1_2"/>
    </person>
    <person id="pedestrian172" depart="559.00">
        <walk edges="TorPl_2_2 TorPl_2_1"/>
    </person>
    <person id="pedestrian173" depart="560.00">
        <walk edges="CheMe_1_1 TorPl_1_3 TorPl_1_4 MalSt_1_1"/>
    </person>
    <person id="pedestrian174" depart="572.00">
        <walk edges="GorSq_2_2 BynPl_2_1 BynPl_2_2 BynPl_1_1 TorPl_1_4 TorPl_1_3 TorPl_1_2 HunSt_1_1"/>
    </person>
    <person id="pedestrian175" depart="573.00">
        <walk edges="GorSq_2_1 GorSq_2_2 BynPl_2_1 BynPl_2_2 BynPl_1_1 TorPl_1_4 TorPl_1_3 CheMe_1_1"/>
    </person>
    <person id="pedestrian176" depart="573.00">
        <walk edges="GowSt_2_2 TorPl_1_3 TorPl_1_2 HunSt_1_1"/>
    </person>
    <person id="pedestrian177" depart="574.00">
        <walk edges="TorPl_1_3 TorPl_1_2"/>
    </person>
    <person id="pedestrian178" depart="575.00">
        <walk edges="GowSt_1_2 TorPl_1_4 BynPl_1_1 BynPl_1_2 BynPl_1_3 GorSq_1_2 GorSq_1_3"/>
    </person>
    <person id="pedestrian179" depart="576.00">
        <walk edges="TorPl_2_4 HunSt_1_2"/>
    </person>
    <person id="pedestrian180" depart="579.00">
        <walk edges="TorPl_2_4 HunSt_1_1"/>
    </person>
    <person id="pedestrian181" depart="580.00">
        <walk edges="MalPl_1_1 BynPl_1_1 BynPl_1_2 BynPl_1_3 GorSq_1_2 GorSq_1_3"/>
    </person>
    <person id="pedestrian182" depart="582.00">
        <walk edges="GowSt_1_1 TorPl_1_3 TorPl_1_2 HunSt_2_2"/>
    </person>
    <person id="pedestrian183" depart="586.00">
        <walk edges="CheMe_1_1 TorPl_1_3 TorPl_1_4 MalPl_1_1"/>
    </person>
    <person id="pedestrian184" depart="588.00">
        <walk edges="GowSt_2_2 TorPl_1_4 BynPl_1_1"/>
    </person>
    <person id="pedestrian185" depart="590.00">
        <walk edges="MalPl_2_1 MalPl_1_1"/>
    </person>
    <person id="pedestrian186" depart="591.00">
        <walk edges="RidGa_2_1 TorPl_2_2 TorPl_2_1"/>
    </person>
    <person id="pedestrian187" depart="593.00">
        <walk edges="GowSt_2_1 TorPl_1_3 CheMe_2_1"/>
    </person>
    <person id="pedestrian188" depart="598.00">
        <walk edges="CheMe_2_1 TorPl_1_2 HunSt_1_2"/>
    </person>
    <person id="pedestrian189" depart="600.00">
        <walk edges="CheMe_2_1 TorPl_1_3 TorPl_1_4 BynPl_1_1 BynPl_1_2"/>
    </person>
    <person id="pedestrian190" depart="602.00">
        <walk edges="GorSq_2_1 GorSq_1_2 GorSq_2_3"/>
    </person>
    <person id="pedestrian191" depart="609.00">
        <walk edges="GorSq_2_3 GorSq_1_1"/>
    </person>
    <person id="pedestrian192" depart="609.00">
        <walk edges="CheMe_2_1 TorPl_1_3 TorPl_1_4 MalSt_1_1"/>
    </person>
    <person id="pedestrian193" depart="612.00">
        <walk edges="GorSq_2_1 GorSq_2_2 BynPl_2_1 BynPl_2_2 BynPl_1_1 MalPl_2_1"/>
    </person>
    <person id="pedestrian194" depart="615.00">
        <walk edges="TorPl_1_3 TorPl_1_2 HunSt_2_2"/>
    </person>
    <person id="pedestrian195" depart="619.00">
        <walk edges="BynPl_2_2 BynPl_1_1 TorPl_1_4"/>
    </person>
    <person id="pedestrian196" depart="622.00">
        <walk edges="HunSt_2_1 TorPl_1_2 TorPl_1_3 TorPl_1_4 BynPl_1_1 BynPl_1_2 BynPl_1_3 GorSq_2_3"/>
    </person>
    <person id="pedestrian197" depart="622.00">
        <walk edges="TorPl_1_3 GowSt_2_1"/>
    </person>
    <person id="pedestrian198" depart="622.00">
        <walk edges="GorSq_2_3 BynPl_1_3 BynPl_1_2 BynPl_1_1 TorPl_1_4 TorPl_1_3 TorPl_1_2 TorPl_1_1"/>
    </person>
    <person id="pedestrian199" depart="626.00">
        <walk edges="GorSq_1_1 BynPl_1_3 BynPl_1_2 BynPl_1_1 TorPl_1_4 TorPl_1_3 TorPl_1_2 HunSt_2_2"/>
    </person>
    <person id="pedestrian200" depart="629.00">
        <walk edges="GorSq_1_2 BynPl_1_3 BynPl_1_2 BynPl_1_1 TorPl_1_4 GowSt_1_1"/>
    </person>
    <person id="pedestrian201" depart="632.00">
        <walk edges="MalSt_1_1 BynPl_2_3"/>
    </person>
    <person id="pedestrian202" depart="634.00">
        <walk edges="RidGa_2_1 TorPl_2_2"/>
    </person>
    <person id="pedestrian203" depart="636.00">
        <walk edges="GowSt_1_2 TorPl_1_3 CheMe_1_1"/>
    </person>
    <person id="pedestrian204" depart="636.00">
        <walk edges="BynPl_1_3 BynPl_1_2 BynPl_1_1 MalPl_2_1"/>
    </person>
    <person id="pedestrian205" depart="640.00">
        <walk edges="GowSt_2_1 TorPl_2_1 BynPl_2_3 BynPl_2_2 BynPl_2_1 GorSq_2_2 GorSq_2_1"/>
    </person>
    <person id="pedestrian206" depart="644.00">
        <walk edges="RidGa_1_1 TorPl_2_3"/>
    </person>
    <person id="pedestrian207" depart="653.00">
        <walk edges="TorPl_1_1 TorPl_2_3 TorPl_2_2"/>
    </person>
    <person id="pedestrian208" depart="654.00">
        <walk edges="MalPl_1_1 BynPl_2_3"/>
    </person>
    <person id="pedestrian209" depart="656.00">
        <walk edges="BynPl_2_1 BynPl_2_2 BynPl_2_3 TorPl_2_1 GowSt_1_2"/>
    </person>
    <person id="pedestrian210" depart="659.00">
        <walk edges="GorSq_2_3 BynPl_1_3 BynPl_1_2 BynPl_1_1 TorPl_1_4 GowSt_2_1"/>
    </person>
    <person id="pedestrian211" depart="660.00">
        <walk edges="TorPl_1_1 TorPl_1_2 TorPl_1_3 TorPl_1_4 BynPl_1_1"/>
    </person>
    <person id="pedestrian212" depart="662.00">
        <walk edges="BynPl_1_3 BynPl_1_2 BynPl_1_1 TorPl_1_4 GowSt_1_1"/>
    </person>
    <person id="pedestrian213" depart="665.00">
        <walk edges="GorSq_2_1 GorSq_2_2 BynPl_2_1"/>
    </person>
    <person id="pedestrian214" depart="668.00">
        <walk edges="HunSt_2_1 TorPl_1_2 TorPl_1_3 TorPl_1_4"/>
    </person>
    <person id="pedestrian215" depart="672.00">
        <walk edges="GorSq_2_2 GorSq_1_2"/>
    </person>
    <person id="pedestrian216" depart="681.00">
        <walk edges="BynPl_1_2 BynPl_1_1 TorPl_1_4 TorPl_1_3 TorPl_1_2 TorPl_2_4"/>
    </person>
    <person id="pedestrian217" depart="701.00">
        <walk edges="CheMe_2_1 TorPl_1_3 GowSt_1_2"/>
    </person>
    <person id="pedestrian218" depart="705.00">
        <walk edges="MalSt_2_1 MalPl_2_1"/>
    </person>
    <person id="pedestrian219" depart="714.00">
        <walk edges="GowSt_2_2 TorPl_2_2 RidGa_1_1"/>
    </person>
    <person id="pedestrian220" depart="721.00">
        <walk edges="CheMe_2_1 TorPl_1_2"/>
    </person>
    <person id="pedestrian221" depart="722.00">
        <walk edges="MalSt_2_1"/>
    </person>
    <person id="pedestrian222" depart="725.00">
        <walk edges="TorPl_2_2 GowSt_2_1"/>
    </person>
    <person id="pedestrian223" depart="737.00">
        <walk edges="TorPl_1_4 BynPl_1_1 BynPl_1_2 BynPl_1_3"/>
    </person>
    <person id="pedestrian224" depart="738.00">
        <walk edges="TorPl_2_4 TorPl_1_2 TorPl_1_3 TorPl_1_4 BynPl_1_1"/>
    </person>
    <person id="pedestrian225" depart="741.00">