<?xml version="1.0" encoding="UTF-8"?>

<!-- generated on 2026-01-14 16:39:08.725271 by Eclipse SUMO randomTrips.py UNKNOWN
<configuration>
    <net-file value="../networks/demo/main.net.xml"/>
    <output-trip-file value="../routes/demo/train/811/pedestrian.trips.xml"/>
    <route-file value="../routes/demo/train/811/pedestrian.rou.xml"/>
    <pedestrians value="True"/>
    <prefix value="pedestrian"/>
    <seed value="811"/>
    <insertion-density value="200.0"/>
    <binomial value="100"/>
</configuration>
-->

<!-- generated on 2026-01-14T16:39:08.709551+00:00 by Eclipse SUMO duarouter 1.25.0
<duarouterConfiguration xmlns:xsi="http://www.w3.org/2001/XMLSchema-instance" xsi:noNamespaceSchemaLocation="http://sumo.dlr.de/xsd/duarouterConfiguration.xsd">

    <input>
        <net-file value="../networks/demo/main.net.xml"/>
        <route-files value="../routes/demo/train/811/pedestrian.trips.xml"/>
    </input>

    <output>
        <output-file value="../routes/demo/train/811/pedestrian.rou.xml"/>
        <alternatives-output value="NUL"/>
    </output>

    <time>
        <begin value="0"/>
        <end value="3600.0"/>
    </time>

    <report>
        <no-warnings value="true"/>
        <ignore-errors value="true"/>
        <no-step-log value="true"/>
    </report>

</duarouterConfiguration>
-->

<routes xmlns:xsi="http://www.w3.org/2001/XMLSchema-instance" xsi:noNamespaceSchemaLocation="http://sumo.dlr.de/xsd/routes_file.xsd">
    <person id="pedestrian0" depart="1.00">
        <walk edges="RidGa_2_1 TorPl_2_2 TorPl_1_4 BynPl_1_1 BynPl_1_2 BynPl_1_3 GorSq_1_1"/>
    </person>
    <person id="pedestrian1" depart="5.00">
        <walk edges="GowSt_2_2 TorPl_1_3 CheMe_1_1"/>
    </person>
    <person id="pedestrian2" depart="5.00">
        <walk edges="GorSq_1_2 BynPl_1_3 BynPl_1_2 BynPl_1_1 TorPl_1_4 TorPl_2_2 RidGa_2_1"/>
    </person>
    <person id="pedestrian3" depart="11.00">
        <walk edges="GowSt_2_2 TorPl_1_4 BynPl_1_1"/>
    </person>
    <person id="pedestrian4" depart="13.00">
        <walk edges="TorPl_2_3 TorPl_2_2 TorPl_1_4 BynPl_1_1 BynPl_1_2 BynPl_1_3 GorSq_1_2 GorSq_1_3"/>
    </person>
    <person id="pedestrian5" depart="16.00">
        <walk edges="BynPl_2_2 BynPl_1_1 TorPl_1_4 GowSt_1_1"/>
    </person>
    <person id="pedestrian6" depart="18.00">
        <walk edges="GorSq_2_2 BynPl_2_1"/>
    </person>
    <person id="pedestrian7" depart="26.00">
        <walk edges="TorPl_2_3 TorPl_1_2 CheMe_2_1"/>
    </person>
    <person id="pedestrian8" depart="27.00">
        <walk edges="BynPl_1_3 BynPl_1_2 BynPl_1_1 TorPl_1_4 TorPl_2_2 TorPl_2_3"/>
    </person>
    <person id="pedestrian9" depart="33.00">
        <walk edges="MalPl_1_1 BynPl_1_1 BynPl_2_2"/>
    </person>
    <person id="pedestrian10" depart="34.00">
        <walk edges="TorPl_2_1 MalSt_2_1"/>
    </person>
    <person id="pedestrian11" depart="35.00">
        <walk edges="GowSt_1_2 TorPl_2_2"/>
    </person>
    <person id="pedestrian12" depart="37.00">
        <walk edges="GorSq_1_1 BynPl_1_3 BynPl_1_2 BynPl_1_1 TorPl_1_4 TorPl_2_2 RidGa_1_1"/>
    </person>
    <person id="pedestrian13" depart="37.00">
        <walk edges="HunSt_2_1 TorPl_1_2 TorPl_1_3 TorPl_1_4 BynPl_1_1 BynPl_1_2"/>
    </person>
    <person id="pedestrian14" depart="37.00">
        <walk edges="TorPl_1_4 TorPl_1_3 TorPl_1_2"/>
    </person>
    <person id="pedestrian15" depart="40.00">
        <walk edges="TorPl_2_1 TorPl_2_2 TorPl_2_3 HunSt_2_1"/>
    </person>
    <person id="pedestrian16" depart="42.00">
        <walk edges="TorPl_2_3 TorPl_2_2 TorPl_1_4 BynPl_1_1 BynPl_1_2 BynPl_1_3 GorSq_1_2 GorSq_1_3"/>
    </person>
    <person id="pedestrian17" depart="43.00">
        <walk edges="GorSq_1_2 BynPl_1_3 BynPl_2_2 BynPl_2_3 MalSt_1_1"/>
    </person>
    <person id="pedestrian18" depart="46.00">
        <walk edges="GowSt_1_2 TorPl_1_4 BynPl_1_1 BynPl_1_2 BynPl_1_3 GorSq_2_3"/>
    </person>
    <person id="pedestrian19" depart="48.00">
        <walk edges="TorPl_1_3 TorPl_1_2 HunSt_2_1"/>
    </person>
    <person id="pedestrian20" depart="57.00">
        <walk edges="TorPl_2_3 TorPl_2_2 TorPl_2_1 MalSt_1_1"/>
    </person>
    <person id="pedestrian21" depart="58.00">
        <walk edges="TorPl_2_2 TorPl_2_1 BynPl_2_3 BynPl_2_2"/>
    </person>
    <person id="pedestrian22" depart="59.00">
        <walk edges="TorPl_2_2 TorPl_1_4 BynPl_1_1 BynPl_1_2 BynPl_1_3 GorSq_2_3"/>
    </person>
    <person id="pedestrian23" depart="60.00">
        <walk edges="RidGa_1_1 TorPl_2_3 TorPl_1_1"/>
    </person>
    <person id="pedestrian24" depart="63.00">
        <walk edges="GorSq_1_2 BynPl_1_3 BynPl_1_2 BynPl_1_1 TorPl_1_4 GowSt_1_1"/>
    </person>
    <person id="pedestrian25" depart="70.00">
        <walk edges="CheMe_1_1 TorPl_1_3 TorPl_1_4 BynPl_1_1 BynPl_1_2"/>
    </person>
    <person id="pedestrian26" depart="86.00">
        <walk edges="GowSt_2_2 TorPl_1_3 TorPl_1_2 TorPl_2_4"/>
    </person>
    <person id="pedestrian27" depart="91.00">
        <walk edges="GowSt_2_2 TorPl_1_4 MalSt_1_1"/>
    </person>
    <person id="pedestrian28" depart="92.00">
        <walk edges="TorPl_2_3 TorPl_2_2 GowSt_1_2"/>
    </person>
    <person id="pedestrian29" depart="94.00">
        <walk edges="GorSq_2_1 GorSq_1_2 GorSq_2_3"/>
    </person>
    <person id="pedestrian30" depart="99.00">
        <walk edges="TorPl_1_2"/>
    </person>
    <person id="pedestrian31" depart="108.00">
        <walk edges="GowSt_2_1 TorPl_1_3"/>
    </person>
    <person id="pedestrian32" depart="109.00">
        <walk edges="GorSq_1_2 BynPl_1_3 BynPl_1_2 BynPl_1_1 TorPl_1_4 TorPl_1_3 TorPl_1_2 TorPl_1_1"/>
    </person>
    <person id="pedestrian33" depart="110.00">
        <walk edges="HunSt_2_1 TorPl_2_3 TorPl_2_2 TorPl_2_1"/>
    </person>
    <person id="pedestrian34" depart="112.00">
        <walk edges="GorSq_1_1 BynPl_1_3 BynPl_1_2 BynPl_1_1 TorPl_1_4 TorPl_1_3"/>
    </person>
    <person id="pedestrian35" depart="121.00">
        <walk edges="TorPl_1_3 TorPl_1_4 BynPl_1_1 BynPl_2_2"/>
    </person>
    <person id="pedestrian36" depart="127.00">
        <walk edges="HunSt_1_2 TorPl_2_3 TorPl_2_2 GowSt_2_1"/>
    </person>
    <person id="pedestrian37" depart="139.00">
        <walk edges="HunSt_1_2 TorPl_2_3 RidGa_2_1"/>
    </person>
    <person id="pedestrian38" depart="150.00">
        <walk edges="BynPl_2_3 BynPl_2_2 BynPl_2_1"/>
    </person>
    <person id="pedestrian39" depart="156.00">
        <walk edges="TorPl_2_1"/>
    </person>
    <person id="pedestrian40" depart="156.00">
        <walk edges="HunSt_2_2 TorPl_1_2 TorPl_1_3 TorPl_1_4 BynPl_1_1 BynPl_2_2 BynPl_2_1"/>
    </person>
    <person id="pedestrian41" depart="162.00">
        <walk edges="BynPl_2_2 BynPl_1_1 TorPl_1_4 GowSt_2_2"/>
    </person>
    <person id="pedestrian42" depart="162.00">
        <walk edges="HunSt_2_2 TorPl_1_2 TorPl_1_3 TorPl_1_4 BynPl_1_1 BynPl_2_2"/>
    </person>
    <person id="pedestrian43" depart="166.00">
        <walk edges="GowSt_1_1 TorPl_2_2 TorPl_2_3"/>
    </person>
    <person id="pedestrian44" depart="173.00">
        <walk edges="HunSt_2_1 TorPl_1_2 TorPl_1_3 TorPl_1_4 BynPl_1_1"/>
    </person>
    <person id="pedestrian45" depart="177.00">
        <walk edges="TorPl_2_4 TorPl_2_3 RidGa_2_1"/>
    </person>
    <person id="pedestrian46" depart="183.00">
        <walk edges="TorPl_1_4 BynPl_1_1 BynPl_2_2"/>
    </person>
    <person id="pedestrian47" depart="197.00">
        <walk edges="TorPl_2_3 TorPl_2_4"/>
    </person>
    <person id="pedestrian48" depart="200.00">
        <walk edges="HunSt_2_2 TorPl_1_1"/>
    </person>
    <person id="pedestrian49" depart="202.00">
        <walk edges="GowSt_1_2 GowSt_1_1"/>
    </person>
    <person id="pedestrian50" depart="209.00">
        <walk edges="HunSt_1_1 TorPl_2_3 RidGa_1_1"/>
    </person>
    <person id="pedestrian51" depart="221.00">
        <walk edges="MalSt_2_1"/>
    </person>
    <person id="pedestrian52" depart="239.00">
        <walk edges="TorPl_1_3 TorPl_1_2 HunSt_2_1"/>
    </person>
    <person id="pedestrian53" depart="245.00">
        <walk edges="GorSq_2_1 GorSq_2_2 BynPl_2_1 BynPl_2_2 BynPl_1_1 TorPl_1_4 GowSt_2_2"/>
    </person>
    <person id="pedestrian54" depart="247.00">
        <walk edges="TorPl_1_2 TorPl_1_3 GowSt_2_1"/>
    </person>
    <person id="pedestrian55" depart="248.00">
        <walk edges="GowSt_2_2 TorPl_2_1 MalSt_2_1"/>
    </person>
    <person id="pedestrian56" depart="251.00">
        <walk edges="MalPl_1_1"/>
    </person>
    <person id="pedestrian57" depart="256.00">
        <walk edges="HunSt_1_1 TorPl_1_2 TorPl_1_3 TorPl_1_4 BynPl_1_1 BynPl_2_2 BynPl_2_1 GorSq_2_2 GorSq_2_1"/>
    </person>
    <person id="pedestrian58" depart="260.00">
        <walk edges="GowSt_1_1 TorPl_2_2 TorPl_2_3 HunSt_1_2"/>
    </person>
    <person id="pedestrian59" depart="265.00">
        <walk edges="GorSq_1_2 BynPl_1_3 BynPl_1_2 BynPl_1_1 TorPl_1_4 TorPl_2_2 RidGa_2_1"/>
    </person>
    <person id="pedestrian60" depart="266.00">
        <walk edges="MalSt_2_1 BynPl_2_3 BynPl_2_2 BynPl_1_3 GorSq_2_3"/>
    </person>
    <person id="pedestrian61" depart="267.00">
        <walk edges="RidGa_2_1 TorPl_2_3 TorPl_2_4"/>
    </person>
    <person id="pedestrian62" depart="271.00">
        <walk edges="BynPl_1_2 BynPl_1_1 TorPl_1_4 TorPl_1_3 TorPl_1_2 TorPl_2_4"/>
    </person>
    <person id="pedestrian63" depart="273.00">
        <walk edges="BynPl_2_1 BynPl_2_2 BynPl_1_1 TorPl_1_4 TorPl_1_3"/>
    </person>
    <person id="pedestrian64" depart="276.00">
        <walk edges="TorPl_1_4 TorPl_2_1"/>
    </person>
    <person id="pedestrian65" depart="280.00">
        <walk edges="MalPl_1_1 TorPl_1_4 TorPl_1_3 TorPl_1_2"/>
    </person>
    <person id="pedestrian66" depart="281.00">
        <walk edges="GorSq_1_3 GorSq_1_2 BynPl_1_3 BynPl_1_2 BynPl_1_1 TorPl_1_4 TorPl_1_3"/>
    </person>
    <person id="pedestrian67" depart="287.00">
        <walk edges="CheMe_2_1 TorPl_1_2 HunSt_2_2"/>
    </person>
    <person id="pedestrian68" depart="288.00">
        <walk edges="TorPl_2_4 HunSt_2_2"/>
    </person>
    <person id="pedestrian69" depart="291.00">
        <walk edges="HunSt_2_2 TorPl_1_2 TorPl_1_3 TorPl_1_4 BynPl_1_1 BynPl_1_2 BynPl_1_3"/>
    </person>
    <person id="pedestrian70" depart="292.00">
        <walk edges="GorSq_2_3 BynPl_1_3 BynPl_1_2 BynPl_1_1 TorPl_1_4 TorPl_1_3 TorPl_1_2 TorPl_1_1"/>
    </person>
    <person id="pedestrian71" depart="293.00">
        <walk edges="GorSq_2_1 GorSq_1_2 GorSq_1_1"/>
    </person>
    <person id="pedestrian72" depart="294.00">
        <walk edges="GowSt_1_1 TorPl_2_2 RidGa_2_1"/>
    </person>
    <person id="pedestrian73" depart="297.00">
        <walk edges="TorPl_2_1 TorPl_2_2 TorPl_2_3 TorPl_1_1"/>
    </person>
    <person id="pedestrian74" depart="300.00">
        <walk edges="HunSt_2_2 TorPl_1_2 TorPl_1_3 TorPl_1_4 MalSt_1_1"/>
    </person>
    <person id="pedestrian75" depart="300.00">
        <walk edges="TorPl_2_2 TorPl_1_3"/>
    </person>
    <person id="pedestrian76" depart="302.00">
        <walk edges="CheMe_1_1 TorPl_1_3 GowSt_1_1"/>
    </person>
    <person id="pedestrian77" depart="310.00">
        <walk edges="GorSq_1_2 BynPl_1_3 BynPl_2_2 BynPl_2_3 MalSt_2_1"/>
    </person>
    <person id="pedestrian78" depart="325.00">
        <walk edges="TorPl_2_3 HunSt_1_1"/>
    </person>
    <person id="pedestrian79" depart="326.00">
        <walk edges="MalPl_2_1 TorPl_1_4 GowSt_1_1"/>
    </person>
    <person id="pedestrian80" depart="328.00">
        <walk edges="TorPl_2_1 BynPl_2_3 BynPl_2_2 BynPl_2_1 GorSq_2_2 GorSq_2_1"/>
    </person>
    <person id="pedestrian81" depart="329.00">
        <walk edges="GorSq_1_3 GorSq_1_2 BynPl_1_3 BynPl_1_2 BynPl_1_1 TorPl_1_4 TorPl_1_3 TorPl_1_2 HunSt_2_2"/>
    </person>
    <person id="pedestrian82" depart="333.00">
        <walk edges="TorPl_1_4 BynPl_1_1 BynPl_1_2 BynPl_1_3 GorSq_1_2 GorSq_1_3"/>
    </person>
    <person id="pedestrian83" depart="333.00">
        <walk edges="BynPl_2_2 BynPl_1_1 TorPl_1_4"/>
    </person>
    <person id="pedestrian84" depart="335.00">
        <walk edges="TorPl_1_1 TorPl_1_2 CheMe_2_1"/>
    </person>
    <person id="pedestrian85" depart="336.00">
        <walk edges="CheMe_2_1 TorPl_1_3 TorPl_1_4 MalSt_1_1"/>
    </person>
    <person id="pedestrian86" depart="336.00">
        <walk edges="TorPl_1_3 TorPl_1_2 HunSt_1_1"/>
    </person>
    <person id="pedestrian87" depart="341.00">
        <walk edges="CheMe_2_1 TorPl_1_2"/>
    </person>
    <person id="pedestrian88" depart="344.00">
        <walk edges="GorSq_1_1 BynPl_1_3 BynPl_1_2 BynPl_1_1 TorPl_1_4 TorPl_1_3 CheMe_2_1"/>
    </person>
    <person id="pedestrian89" depart="345.00">
        <walk edges="TorPl_1_3 TorPl_1_4 BynPl_1_1 BynPl_1_2 BynPl_1_3 GorSq_1_2 GorSq_1_3"/>
    </person>
    <person id="pedestrian90" depart="347.00">
        <walk edges="TorPl_2_3 TorPl_2_2 TorPl_1_4 BynPl_1_1 BynPl_1_2 BynPl_1_3 GorSq_1_2"/>
    </person>
    <person id="pedestrian91" depart="353.00">
        <walk edges="CheMe_2_1 TorPl_1_3 TorPl_2_1 MalSt_2_1"/>
    </person>
    <person id="pedestrian92" depart="354.00">
        <walk edges="BynPl_1_1 BynPl_2_2 BynPl_2_1 GorSq_2_2"/>
    </person>
    <person id="pedestrian93" depart="355.00">
        <walk edges="TorPl_2_1 GowSt_1_2"/>
    </person>
    <person id="pedestrian94" depart="361.00">
        <walk edges="TorPl_1_4 BynPl_2_3"/>
    </person>
    <person id="pedestrian95" depart="362.00">
        <walk edges="GowSt_2_1 TorPl_1_4 MalPl_1_1"/>
    </person>
    <person id="pedestrian96" depart="368.00">
        <walk edges="GowSt_2_2 TorPl_1_4 BynPl_1_1 BynPl_2_2"/>
    </person>
    <person id="pedestrian97" depart="370.00">
        <walk edges="CheMe_1_1 TorPl_1_3 TorPl_2_1 MalSt_2_1"/>
    </person>
    <person id="pedestrian98" depart="372.00">
        <walk edges="GorSq_2_2 BynPl_2_1 BynPl_2_2 BynPl_2_3 TorPl_2_1 TorPl_2_2 TorPl_2_3 HunSt_2_1"/>
    </person>
    <person id="pedestrian99" depart="382.00">
        <walk edges="CheMe_1_1 TorPl_1_2 HunSt_2_2"/>
    </person>
    <person id="pedestrian100" depart="384.00">
        <walk edges="GorSq_2_1 GorSq_1_3"/>
    </person>
    <person id="pedestrian101" depart="384.00">
        <walk edges="HunSt_2_2 TorPl_2_4"/>
    </person>
    <person id="pedestrian102" depart="386.00">
        <walk edges="BynPl_2_3 TorPl_1_4 GowSt_1_1"/>
    </person>
    <person id="pedestrian103" depart="387.00">
        <walk edges="MalPl_1_1 TorPl_1_4 TorPl_1_3 TorPl_1_2 TorPl_2_4"/>
    </person>
    <person id="pedestrian104" depart="388.00">
        <walk edges="TorPl_2_1 TorPl_2_2 TorPl_2_3 HunSt_1_2"/>
    </person>
    <person id="pedestrian105" depart="391.00">
        <walk edges="CheMe_1_1 TorPl_1_3 TorPl_1_4 BynPl_2_3"/>
    </person>
    <person id="pedestrian106" depart="401.00">
        <walk edges="TorPl_2_3 TorPl_2_2 TorPl_2_1 BynPl_2_3 BynPl_2_2 BynPl_2_1"/>
    </person>
    <person id="pedestrian107" depart="404.00">
        <walk edges="TorPl_2_2 TorPl_2_3 HunSt_1_1"/>
    </person>
    <person id="pedestrian108" depart="404.00">
        <walk edges="GowSt_2_1 TorPl_1_4 BynPl_1_1"/>
    </person>
    <person id="pedestrian109" depart="406.00">
        <walk edges="BynPl_2_2 BynPl_1_1 TorPl_1_4 TorPl_1_3 TorPl_1_2 HunSt_2_2"/>
    </person>
    <person id="pedestrian110" depart="411.00">
        <walk edges="TorPl_2_4 TorPl_2_3 TorPl_2_2 GowSt_1_2"/>
    </person>
    <person id="pedestrian111" depart="417.00">
        <walk edges="TorPl_1_4 BynPl_1_1"/>
    </person>
    <person id="pedestrian112" depart="420.00">
        <walk edges="HunSt_1_2 TorPl_2_3 TorPl_2_2 TorPl_1_4 BynPl_1_1 BynPl_1_2 BynPl_1_3 GorSq_1_2 GorSq_1_3"/>
    </person>
    <person id="pedestrian113" depart="421.00">
        <walk edges="BynPl_1_2 BynPl_2_2 BynPl_2_1 GorSq_2_2"/>
    </person>
    <person id="pedestrian114" depart="422.00">
        <walk edges="GorSq_1_3 GorSq_1_2 BynPl_1_3 BynPl_1_2 BynPl_1_1 TorPl_1_4 TorPl_2_2 RidGa_1_1"/>
    </person>
    <person id="pedestrian115" depart="424.00">
        <walk edges="TorPl_2_2 TorPl_2_3"/>
    </person>
    <person id="pedestrian116" depart="424.00">
        <walk edges="GowSt_1_1 TorPl_1_4 BynPl_1_1 BynPl_1_2 BynPl_1_3 GorSq_1_1"/>
    </person>
    <person id="pedestrian117" depart="425.00">
        <walk edges="BynPl_1_1 BynPl_2_2 BynPl_2_1 GorSq_2_2"/>
    </person>
    <person id="pedestrian118" depart="430.00">
        <walk edges="GorSq_1_2 GorSq_2_3"/>
    </person>
    <person id="pedestrian119" depart="432.00">
        <walk edges="CheMe_2_1 TorPl_1_3 TorPl_1_4 BynPl_1_1 BynPl_1_2 BynPl_1_3 GorSq_1_2 GorSq_1_3"/>
    </person>
    <person id="pedestrian120" depart="432.00">
        <walk edges="TorPl_2_4 TorPl_1_2 TorPl_1_3 TorPl_1_4 BynPl_1_1 BynPl_1_2 BynPl_1_3 GorSq_1_1"/>
    </person>
    <person id="pedestrian121" depart="438.00">
        <walk edges="MalSt_2_1 TorPl_2_1 TorPl_2_2 TorPl_2_3"/>
    </person>
    <person id="pedestrian122" depart="442.00">
        <walk edges="GorSq_1_1 BynPl_1_3 BynPl_1_2 BynPl_1_1 TorPl_1_4 TorPl_1_3 CheMe_1_1"/>
    </person>
    <person id="pedestrian123" depart="445.00">
        <walk edges="RidGa_1_1 TorPl_2_2 TorPl_1_4 BynPl_1_1 BynPl_1_2"/>
    </person>
    <person id="pedestrian124" depart="446.00">
        <walk edges="MalPl_1_1 TorPl_1_4 TorPl_1_3 TorPl_1_2 TorPl_1_1"/>
    </person>
    <person id="pedestrian125" depart="447.00">
        <walk edges="TorPl_2_2 TorPl_1_3"/>
    </person>
    <person id="pedestrian126" depart="454.00">
        <walk edges="BynPl_1_3 BynPl_1_2 BynPl_1_1 TorPl_1_4 TorPl_1_3 TorPl_1_2 HunSt_1_1"/>
    </person>
    <person id="pedestrian127" depart="456.00">
        <walk edges="CheMe_1_1 TorPl_1_2"/>
    </person>
    <person id="pedestrian128" depart="461.00">
        <walk edges="RidGa_2_1 TorPl_2_3"/>
    </person>
    <person id="pedestrian129" depart="470.00">
        <walk edges="TorPl_1_4 BynPl_1_1 BynPl_2_2 BynPl_2_1"/>
    </person>
    <person id="pedestrian130" depart="487.00">
        <walk edges="BynPl_1_1 TorPl_1_4 GowSt_2_1"/>
    </person>
    <person id="pedestrian131" depart="487.00">
        <walk edges="GorSq_2_3 BynPl_1_3 BynPl_1_2"/>
    </person>
    <person id="pedestrian132" depart="488.00">
        <walk edges="TorPl_1_3 TorPl_1_4 MalPl_2_1"/>
    </person>
    <person id="pedestrian133" depart="489.00">
        <walk edges="HunSt_1_2 TorPl_2_3 TorPl_2_2 TorPl_1_4 BynPl_1_1"/>
    </person>
    <person id="pedestrian134" depart="500.00">
        <walk edges="RidGa_1_1 TorPl_2_3 HunSt_2_1"/>
    </person>
    <person id="pedestrian135" depart="500.00">
        <walk edges="RidGa_1_1"/>
    </person>
    <person id="pedestrian136" depart="501.00">
        <walk edges="CheMe_2_1"/>
    </person>
    <person id="pedestrian137" depart="501.00">
        <walk edges="BynPl_2_2 BynPl_1_1"/>
    </person>
    <person id="pedestrian138" depart="504.00">
        <walk edges="HunSt_2_2 TorPl_1_2 CheMe_1_1"/>
    </person>
    <person id="pedestrian139" depart="505.00">
        <walk edges="TorPl_1_4 TorPl_1_3 TorPl_1_2 HunSt_2_1"/>
    </person>
    <person id="pedestrian140" depart="506.00">
        <walk edges="CheMe_2_1 TorPl_1_3 TorPl_2_2"/>
    </person>
    <person id="pedestrian141" depart="508.00">
        <walk edges="TorPl_2_4 TorPl_1_2 CheMe_2_1"/>
    </person>
    <person id="pedestrian142" depart="509.00">
        <walk edges="MalPl_1_1 BynPl_1_1 BynPl_2_2 BynPl_2_1"/>
    </person>
    <person id="pedestrian143" depart="513.00">
        <walk edges="TorPl_2_4 HunSt_1_2"/>
    </person>
    <person id="pedestrian144" depart="519.00">
        <walk edges="TorPl_1_3 TorPl_1_4 BynPl_1_1 BynPl_2_2 BynPl_2_1 GorSq_2_2 GorSq_2_1"/>
    </person>
    <person id="pedestrian145" depart="521.00">
        <walk edges="BynPl_1_1 TorPl_1_4 TorPl_1_3 CheMe_1_1"/>
    </person>
    <person id="pedestrian146" depart="523.00">
        <walk edges="TorPl_1_4 BynPl_1_1 BynPl_1_2 BynPl_1_3 GorSq_1_2"/>
    </person>
    <person id="pedestrian147" depart="526.00">
        <walk edges="TorPl_1_3 TorPl_1_4 BynPl_1_1 BynPl_2_2 BynPl_2_1 GorSq_2_2 GorSq_2_1"/>
    </person>
    <person id="pedestrian148" depart="529.00">
        <walk edges="GorSq_1_1 BynPl_1_3 BynPl_1_2 BynPl_1_1 TorPl_1_4 TorPl_1_3 TorPl_1_2 TorPl_2_4"/>
    </person>
    <person id="pedestrian149" depart="532.00">
        <walk edges="GorSq_1_3 GorSq_2_2"/>
    </person>
    <person id="pedestrian150" depart="542.00">
        <walk edges="CheMe_1_1 TorPl_1_3 GowSt_2_2"/>
    </person>
    <person id="pedestrian151" depart="550.00">
        <walk edges="MalPl_1_1 TorPl_1_4 GowSt_1_1"/>
    </person>
    <person id="pedestrian152" depart="553.00">
        <walk edges="MalSt_1_1 TorPl_2_1 TorPl_2_2 TorPl_2_3"/>
    </person>
    <person id="pedestrian153" depart="554.00">
        <walk edges="GowSt_2_1 TorPl_2_1 BynPl_2_3 BynPl_2_2"/>
    </person>
    <person id="pedestrian154" depart="558.00">
        <walk edges="TorPl_1_3 TorPl_1_2 HunSt_1_2"/>
    </person>
    <person id="pedestrian155" depart="560.00">
        <walk edges="TorPl_1_2 TorPl_1_3 GowSt_2_2"/>
    </person>
    <person id="pedestrian156" depart="565.00">
        <walk edges="GowSt_1_2 TorPl_1_4"/>
    </person>
    <person id="pedestrian157" depart="568.00">
        <walk edges="BynPl_1_2 BynPl_1_1 TorPl_1_4 TorPl_2_2 RidGa_2_1"/>
    </person>
    <person id="pedestrian158" depart="569.00">
        <walk edges="RidGa_1_1 TorPl_2_2 TorPl_2_1 BynPl_2_3 BynPl_2_2 BynPl_2_1 GorSq_2_2 GorSq_2_1"/>
    </person>
    <person id="pedestrian159" depart="571.00">
        <walk edges="GowSt_2_1 TorPl_2_2"/>
    </person>
    <person id="pedestrian160" depart="573.00">
        <walk edges="GowSt_1_1 TorPl_1_4 BynPl_1_1 BynPl_1_2 BynPl_1_3 GorSq_1_2 GorSq_1_3"/>
    </person>
    <person id="pedestrian161" depart="579.00">
        <walk edges="BynPl_2_1 BynPl_2_2 BynPl_2_3 TorPl_2_1 TorPl_2_2 TorPl_2_3 HunSt_2_1"/>
    </person>
    <person id="pedestrian162" depart="582.00">
        <walk edges="HunSt_1_1 TorPl_2_3"/>
    </person>
    <person id="pedestrian163" depart="583.00">
        <walk edges="CheMe_2_1 TorPl_1_2 HunSt_1_2"/>
    </person>
    <person id="pedestrian164" depart="588.00">
        <walk edges="TorPl_2_4 TorPl_2_3 RidGa_2_1"/>
    </person>
    <person id="pedestrian165" depart="596.00">
        <walk edges="GorSq_2_3 BynPl_1_3"/>
    </person>
    <person id="pedestrian166" depart="596.00">
        <walk edges="GorSq_2_1 GorSq_2_2 BynPl_2_1 BynPl_2_2 BynPl_2_3 TorPl_2_1 TorPl_2_2 RidGa_2_1"/>
    </person>
    <person id="pedestrian167" depart="596.00">
        <walk edges="TorPl_1_1 TorPl_1_2 CheMe_1_1"/>
    </person>
    <person id="pedestrian168" depart="605.00">
        <walk edges="HunSt_1_1 TorPl_2_4"/>
    </person>
    <person id="pedestrian169" depart="607.00">
        <walk edges="BynPl_2_3 TorPl_1_4 TorPl_1_3 CheMe_1_1"/>
    </person>
    <person id="pedestrian170" depart="614.00">
        <walk edges="BynPl_1_3 BynPl_2_2 BynPl_2_3 MalSt_1_1"/>
    </person>
    <person id="pedestrian171" depart="617.00">
        <walk edges="GorSq_1_2 BynPl_1_3 BynPl_1_2 BynPl_1_1 TorPl_1_4 GowSt_1_2"/>
    </person>
    <person id="pedestrian172" depart="630.00">
        <walk edges="TorPl_1_1 TorPl_1_2 TorPl_1_3 TorPl_1_4 BynPl_1_1"/>
    </person>
    <person id="pedestrian173" depart="634.00">
        <walk edges="HunSt_1_2 TorPl_1_2"/>
    </person>
    <person id="pedestrian174" depart="634.00">
        <walk edges="GorSq_1_1 BynPl_1_3 BynPl_1_2 BynPl_1_1 TorPl_1_4 TorPl_2_2 RidGa_1_1"/>
    </person>
    <person id="pedestrian175" depart="645.00">
        <walk edges="BynPl_2_2 BynPl_2_3 TorPl_2_1 TorPl_2_2 TorPl_2_3 TorPl_2_4"/>
    </person>
    <person id="pedestrian176" depart="648.00">
        <walk edges="TorPl_2_4 TorPl_1_2 TorPl_1_3 TorPl_1_4 BynPl_1_1 BynPl_1_2 BynPl_1_3 GorSq_1_2 GorSq_1_3"/>
    </person>
    <person id="pedestrian177" depart="649.00">
        <walk edges="GorSq_2_2 BynPl_2_1 BynPl_2_2 BynPl_2_3 TorPl_2_1 TorPl_2_2 TorPl_2_3 TorPl_2_4"/>
    </person>
    <person id="pedestrian178" depart="652.00">
        <walk edges="HunSt_1_1 TorPl_1_2 CheMe_1_1"/>
    </person>
    <person id="pedestrian179" depart="663.00">
        <walk edges="TorPl_2_4 TorPl_1_2 TorPl_1_3 GowSt_1_1"/>
    </person>
    <person id="pedestrian180" depart="665.00">
        <walk edges="BynPl_2_3 TorPl_1_4"/>
    </person>
    <person id="pedestrian181" depart="669.00">
        <walk edges="HunSt_1_1 TorPl_2_3 TorPl_2_2 GowSt_1_2"/>
    </person>
    <person id="pedestrian182" depart="669.00">
        <walk edges="HunSt_2_1 TorPl_2_3 TorPl_2_2 GowSt_2_1"/>
    </person>
    <person id="pedestrian183" depart="672.00">
        <walk edges="BynPl_1_2 BynPl_1_3"/>
    </person>
    <person id="pedestrian184" depart="675.00">
        <walk edges="GorSq_1_2 BynPl_1_3 BynPl_1_2 BynPl_1_1 TorPl_1_4 TorPl_1_3 CheMe_2_1"/>
    </person>
    <person id="pedestrian185" depart="681.00">
        <walk edges="CheMe_1_1 TorPl_1_3 TorPl_1_4 MalPl_1_1"/>
    </person>
    <person id="pedestrian186" depart="684.00">
        <walk edges="MalSt_2_1 BynPl_2_3 BynPl_1_2"/>
    </person>
    <person id="pedestrian187" depart="686.00">
        <walk edges="TorPl_1_4 BynPl_1_1 BynPl_1_2 BynPl_1_3 GorSq_2_3"/>
    </person>
    <person id="pedestrian188" depart="689.00">
        <walk edges="TorPl_1_1 TorPl_2_3 TorPl_2_2 GowSt_1_2"/>
    </person>
    <person id="pedestrian189" depart="694.00">
        <walk edges="GorSq_2_3 BynPl_1_3 BynPl_1_2 BynPl_1_1 TorPl_1_4 TorPl_2_2 RidGa_1_1"/>
    </person>
    <person id="pedestrian190" depart="701.00">
        <walk edges="HunSt_2_2 TorPl_2_3 RidGa_2_1"/>
    </person>
    <person id="pedestrian191" depart="707.00">
        <walk edges="HunSt_1_1 TorPl_1_2 TorPl_1_3 TorPl_1_4 BynPl_1_1 BynPl_2_2 BynPl_2_1 GorSq_2_2"/>
    </person>
    <person id="pedestrian192" depart="708.00">
        <walk edges="GowSt_1_1 TorPl_1_4 MalSt_1_1"/>
    </person>
    <person id="pedestrian193" depart="708.00">
        <walk edges="MalSt_2_1 TorPl_2_1 TorPl_2_2"/>
    </person>
    <person id="pedestrian194" depart="710.00">
        <walk edges="MalSt_2_1 BynPl_2_3 BynPl_2_2 BynPl_1_3 GorSq_2_3"/>
    </person>
    <person id="pedestrian195" depart="712.00">
        <walk edges="TorPl_2_3 TorPl_2_2 TorPl_1_4 BynPl_1_1 BynPl_1_2"/>
    </person>
    <person id="pedestrian196" depart="714.00">
        <walk edges="BynPl_1_2"/>
    </person>
    <person id="pedestrian197" depart="717.00">
        <walk edges="RidGa_1_1 TorPl_2_2 TorPl_1_4 BynPl_1_1 BynPl_1_2 BynPl_1_3 GorSq_1_1"/>
    </person>
    <person id="pedestrian198" depart="720.00">
        <walk edges="BynPl_2_2 BynPl_2_3 MalSt_2_1"/>
    </person>
    <person id="pedestrian199" depart="723.00">
        <walk edges="TorPl_2_1 TorPl_2_2 TorPl_2_3 HunSt_1_2"/>
    </person>
    <person id="pedestrian200" depart="734.00">
        <walk edges="HunSt_1_2 TorPl_2_3 TorPl_2_2 TorPl_2_1"/>
    </person>
    <person id="pedestrian201" depart="736.00">
        <walk edges="BynPl_1_2 BynPl_1_1 TorPl_1_4 TorPl_2_2 TorPl_2_3 HunSt_1_2"/>
    </person>
    <person id="pedestrian202" depart="740.00">
        <walk edges="GorSq_2_3 BynPl_1_3 BynPl_1_2 BynPl_1_1 TorPl_1_4 TorPl_2_2"/>
    </person>
    <person id="pedestrian203" depart="742.00">
        <walk edges="GowSt_2_2 TorPl_1_4 MalPl_1_1"/>
    </person>
    <person id="pedestrian204" depart="750.00">
        <walk edges="HunSt_1_2"/>
    </person>
    <person id="pedestrian205" depart="753.00">
        <walk edges="GorSq_2_1 GorSq_2_2 BynPl_2_1 BynPl_2_2 BynPl_1_1"/>
    </person>
    <person id="pedestrian206" depart="756.00">
        <walk edges="TorPl_1_3 TorPl_1_4 BynPl_1_1 BynPl_1_2 BynPl_1_3 GorSq_1_1"/>
    </person>
    <person id="pedestrian207" depart="758.00">
        <walk edges="MalPl_1_1 TorPl_1_4 TorPl_1_3 TorPl_1_2"/>
    </person>
    <person id="pedestrian208" depart="761.00">
        <walk edges="BynPl_1_1 BynPl_1_2"/>
    </person>
    <person id="pedestrian209" depart="764.00">
        <walk edges="CheMe_1_1 TorPl_1_3 GowSt_2_2"/>
    </person>
    <person id="pedestrian210" depart="767.00">
        <walk edges="GowSt_2_1 TorPl_2_2 RidGa_2_1"/>
    </person>
    <person id="pedestrian211" depart="767.00">
        <walk edges="TorPl_2_1 TorPl_2_2 TorPl_2_3 TorPl_1_1"/>
    </person>
    <person id="pedestrian212" depart="768.00">
        <walk edges="MalSt_2_1 TorPl_2_1 TorPl_2_2 TorPl_2_3 HunSt_2_1"/>
    </person>
    <person id="pedestrian213" depart="768.00">
        <walk edges="TorPl_2_2 TorPl_1_4 BynPl_1_1 BynPl_1_2 BynPl_1_3"/>
    </person>
    <person id="pedestrian214" depart="769.00">
        <walk edges="TorPl_2_4 TorPl_1_2 TorPl_1_3 TorPl_1_4 BynPl_1_1 BynPl_1_2 BynPl_1_3 GorSq_2_3"/>
    </person>
    <person id="pedestrian215" depart="771.00">
        <walk edges="HunSt_1_1"/>
    </person>
    <person id="pedestrian216" depart="774.00">
        <walk edges="GowSt_1_1 TorPl_1_4 BynPl_1_1 BynPl_1_2 BynPl_1_3 GorSq_2_3"/>
    </person>
    <person id="pedestrian217" depart="777.00">
        <walk edges="TorPl_1_3 TorPl_1_4 BynPl_1_1 BynPl_1_2 BynPl_1_3 GorSq_1_2"/>
    </person>
    <person id="pedestrian218" depart="778.00">
        <walk edges="TorPl_1_3 TorPl_1_4"/>
    </person>
    <person id="pedestrian219" depart="779.00">
        <walk edges="GorSq_2_1 GorSq_2_2 BynPl_2_1 BynPl_2_2 BynPl_1_1 TorPl_1_4 TorPl_1_3 TorPl_1_2 HunSt_1_1"/>
    </person>
    <person id="pedestrian220" depart="782.00">
        <walk edges="BynPl_1_3 BynPl_1_2 BynPl_1_1 TorPl_1_4 TorPl_1_3 CheMe_1_1"/>
    </person>
    <person id="pedestrian221" depart="790.00">
        <walk edges="BynPl_1_3 BynPl_1_2 BynPl_1_1 TorPl_1_4 TorPl_2_2 RidGa_2_1"/>
    </person>
    <person id="pedestrian222" depart="791.00">
        <walk edges="BynPl_2_3 TorPl_1_4 TorPl_1_3 TorPl_1_2 TorPl_1_1"/>
    </person>