<?xml version="1.0" encoding="UTF-8"?>

<!-- generated on 2025-11-24 14:59:33.420591 by Eclipse SUMO randomTrips.py UNKNOWN
<configuration>
    <net-file value="../networks/demo/main.net.xml"/>
    <output-trip-file value="../routes/demo/3/pedestrian.trips.xml"/>
    <route-file value="../routes/demo/3/pedestrian.rou.xml"/>
    <pedestrians value="True"/>
    <prefix value="pedestrian"/>
    <seed value="3"/>
    <period value="5.0"/>
    <binomial value="100"/>
</configuration>
-->

<!-- generated on 2025-11-24T14:59:33.408252+00:00 by Eclipse SUMO duarouter 1.25.0
<duarouterConfiguration xmlns:xsi="http://www.w3.org/2001/XMLSchema-instance" xsi:noNamespaceSchemaLocation="http://sumo.dlr.de/xsd/duarouterConfiguration.xsd">

    <input>
        <net-file value="../networks/demo/main.net.xml"/>
        <route-files value="../routes/demo/3/pedestrian.trips.xml"/>
    </input>

    <output>
        <output-file value="../routes/demo/3/pedestrian.rou.xml"/>
        <alternatives-output value="NUL"/>
    </output>

    <time>
        <begin value="0"/>
        <end value="3600.0"/>
    </time>

    <report>
        <no-warnings value="true"/>
        <ignore-errors value="true"/>
        <no-step-log value="true"/>
    </report>

</duarouterConfiguration>
-->

<routes xmlns:xsi="http://www.w3.org/2001/XMLSchema-instance" xsi:noNamespaceSchemaLocation="http://sumo.dlr.de/xsd/routes_file.xsd">
    <person id="pedestrian0" depart="2.00">
        <walk edges="BynPl_1_2 BynPl_2_2"/>
    </person>
    <person id="pedestrian1" depart="13.00">
        <walk edges="GorSq_1_3 GorSq_1_2 BynPl_1_3 BynPl_2_2 BynPl_2_3 MalSt_2_1"/>
    </person>
    <person id="pedestrian2" depart="17.00">
        <walk edges="CheMe_1_1 CheMe_2_1"/>
    </person>
    <person id="pedestrian3" depart="17.00">
        <walk edges="GowSt_1_2 GowSt_2_2"/>
    </person>
    <person id="pedestrian4" depart="17.00">
        <walk edges="MalPl_2_1 TorPl_1_4 GowSt_2_2"/>
    </person>
    <person id="pedestrian5" depart="18.00">
        <walk edges="CheMe_2_1 TorPl_1_3 TorPl_1_4 BynPl_1_1 BynPl_1_2 BynPl_1_3 GorSq_1_1"/>
    </person>
    <person id="pedestrian6" depart="23.00">
        <walk edges="TorPl_1_3 TorPl_1_4 BynPl_1_1 BynPl_2_2 BynPl_2_1 GorSq_2_2 GorSq_2_1"/>
    </person>
    <person id="pedestrian7" depart="25.00">
        <walk edges="RidGa_1_1 RidGa_2_1"/>
    </person>
    <person id="pedestrian8" depart="33.00">
        <walk edges="BynPl_1_3 BynPl_1_2 BynPl_1_1 TorPl_1_4 TorPl_1_3 CheMe_1_1"/>
    </person>
    <person id="pedestrian9" depart="34.00">
        <walk edges="GorSq_1_3 GorSq_1_2 BynPl_1_3 BynPl_1_2 BynPl_1_1 TorPl_1_4 TorPl_1_3 TorPl_1_2 HunSt_1_1"/>
    </person>
    <person id="pedestrian10" depart="39.00">
        <walk edges="BynPl_2_2 BynPl_2_3 TorPl_2_1 TorPl_2_2 TorPl_2_3"/>
    </person>
    <person id="pedestrian11" depart="50.00">
        <walk edges="TorPl_1_4 BynPl_2_3"/>
    </person>
    <person id="pedestrian12" depart="55.00">
        <walk edges="MalPl_1_1 BynPl_2_3"/>
    </person>
    <person id="pedestrian13" depart="60.00">
        <walk edges="MalSt_1_1 TorPl_2_1 TorPl_2_2 TorPl_2_3"/>
    </person>
    <person id="pedestrian14" depart="61.00">
        <walk edges="GorSq_1_1 BynPl_1_3 BynPl_2_1"/>
    </person>
    <person id="pedestrian15" depart="66.00">
        <walk edges="HunSt_1_1 TorPl_1_2 TorPl_1_3 TorPl_1_4 BynPl_1_1 BynPl_2_2"/>
    </person>
    <person id="pedestrian16" depart="67.00">
        <walk edges="BynPl_2_2 BynPl_2_3 TorPl_2_1 TorPl_2_2"/>
    </person>
    <person id="pedestrian17" depart="86.00">
        <walk edges="HunSt_2_1 TorPl_2_3 TorPl_2_2 TorPl_2_1 BynPl_2_3 BynPl_2_2 BynPl_2_1 GorSq_2_2 GorSq_2_1"/>
    </person>
    <person id="pedestrian18" depart="92.00">
        <walk edges="GorSq_2_2 GorSq_1_2 BynPl_1_3"/>
    </person>
    <person id="pedestrian19" depart="92.00">
        <walk edges="BynPl_1_2 BynPl_1_3 GorSq_1_2 GorSq_1_3"/>
    </person>
    <person id="pedestrian20" depart="96.00">
        <walk edges="MalPl_2_1 TorPl_1_4 GowSt_1_2"/>
    </person>
    <person id="pedestrian21" depart="97.00">
        <walk edges="TorPl_1_4 TorPl_1_3"/>
    </person>
    <person id="pedestrian22" depart="98.00">
        <walk edges="BynPl_2_1 BynPl_2_2 BynPl_1_1 TorPl_1_4 TorPl_1_3 CheMe_1_1"/>
    </person>
    <person id="pedestrian23" depart="99.00">
        <walk edges="BynPl_2_2 BynPl_2_3 TorPl_2_1 TorPl_2_2 TorPl_2_3"/>
    </person>
    <person id="pedestrian24" depart="102.00">
        <walk edges="MalSt_2_1 BynPl_2_3 BynPl_2_2 BynPl_1_3 GorSq_1_1"/>
    </person>
    <person id="pedestrian25" depart="103.00">
        <walk edges="RidGa_1_1 TorPl_2_2 TorPl_1_4"/>
    </person>
    <person id="pedestrian26" depart="113.00">
        <walk edges="TorPl_1_4 BynPl_1_1 BynPl_2_2 BynPl_2_1 GorSq_2_2"/>
    </person>
    <person id="pedestrian27" depart="117.00">
        <walk edges="BynPl_1_2 BynPl_1_1 TorPl_1_4 TorPl_1_3 TorPl_1_2 HunSt_1_1"/>
    </person>
    <person id="pedestrian28" depart="125.00">
        <walk edges="TorPl_2_4 HunSt_2_2"/>
    </person>
    <person id="pedestrian29" depart="128.00">
        <walk edges="GowSt_2_2 TorPl_2_2 RidGa_1_1"/>
    </person>
    <person id="pedestrian30" depart="131.00">
        <walk edges="TorPl_1_3 TorPl_2_2"/>
    </person>
    <person id="pedestrian31" depart="135.00">
        <walk edges="GorSq_1_1 BynPl_1_3 BynPl_1_2 BynPl_1_1 TorPl_1_4 TorPl_1_3 TorPl_1_2 TorPl_2_4"/>
    </person>
    <person id="pedestrian32" depart="139.00">
        <walk edges="BynPl_1_1 TorPl_1_4 TorPl_1_3 TorPl_1_2 TorPl_2_4"/>
    </person>
    <person id="pedestrian33" depart="146.00">
        <walk edges="GowSt_1_1 TorPl_1_4 BynPl_1_1 BynPl_2_2 BynPl_2_1"/>
    </person>
    <person id="pedestrian34" depart="149.00">
        <walk edges="TorPl_2_3 TorPl_2_2 TorPl_2_1 MalSt_1_1"/>
    </person>
    <person id="pedestrian35" depart="153.00">
        <walk edges="TorPl_1_3 TorPl_1_4 BynPl_1_1"/>
    </person>
    <person id="pedestrian36" depart="158.00">
        <walk edges="TorPl_2_3 TorPl_1_2 CheMe_1_1"/>
    </person>
    <person id="pedestrian37" depart="166.00">
        <walk edges="CheMe_2_1 TorPl_1_2 HunSt_2_2"/>
    </person>
    <person id="pedestrian38" depart="169.00">
        <walk edges="MalPl_2_1 BynPl_1_1 BynPl_1_2 BynPl_1_3"/>
    </person>
    <person id="pedestrian39" depart="181.00">
        <walk edges="GowSt_1_2 TorPl_2_1 BynPl_2_3 BynPl_2_2 BynPl_2_1 GorSq_2_2"/>
    </person>
    <person id="pedestrian40" depart="184.00">
        <walk edges="CheMe_2_1 TorPl_1_3 TorPl_1_4 BynPl_1_1 BynPl_2_2 BynPl_2_1"/>
    </person>
    <person id="pedestrian41" depart="185.00">
        <walk edges="BynPl_2_2 BynPl_2_3 TorPl_2_1 GowSt_2_1"/>
    </person>
    <person id="pedestrian42" depart="186.00">
        <walk edges="TorPl_1_1 TorPl_2_4"/>
    </person>
    <person id="pedestrian43" depart="195.00">
        <walk edges="TorPl_1_1 TorPl_1_2 CheMe_2_1"/>
    </person>
    <person id="pedestrian44" depart="204.00">
        <walk edges="GowSt_1_1 TorPl_1_4 BynPl_1_1 BynPl_2_2"/>
    </person>
    <person id="pedestrian45" depart="204.00">
        <walk edges="HunSt_1_1 TorPl_1_2 CheMe_1_1"/>
    </person>
    <person id="pedestrian46" depart="209.00">
        <walk edges="HunSt_1_1"/>
    </person>
    <person id="pedestrian47" depart="211.00">
        <walk edges="TorPl_1_2 TorPl_2_3 RidGa_1_1"/>
    </person>
    <person id="pedestrian48" depart="215.00">
        <walk edges="CheMe_1_1 TorPl_1_2 HunSt_2_1"/>
    </person>
    <person id="pedestrian49" depart="221.00">
        <walk edges="BynPl_1_3 BynPl_1_2 BynPl_1_1 TorPl_1_4 TorPl_1_3 TorPl_1_2"/>
    </person>
    <person id="pedestrian50" depart="228.00">
        <walk edges="CheMe_1_1 TorPl_1_2 HunSt_1_2"/>
    </person>
    <person id="pedestrian51" depart="245.00">
        <walk edges="MalSt_1_1 TorPl_2_1 TorPl_2_2 TorPl_2_3 HunSt_2_1"/>
    </person>
    <person id="pedestrian52" depart="252.00">
        <walk edges="TorPl_2_2 TorPl_1_4 BynPl_1_1 BynPl_1_2 BynPl_1_3 GorSq_1_2"/>
    </person>
    <person id="pedestrian53" depart="257.00">
        <walk edges="BynPl_2_3 BynPl_2_2 BynPl_1_3 GorSq_2_3"/>
    </person>
    <person id="pedestrian54" depart="283.00">
        <walk edges="GowSt_1_1 GowSt_1_2"/>
    </person>
    <person id="pedestrian55" depart="289.00">
        <walk edges="GorSq_1_3 GorSq_1_2 BynPl_1_3 BynPl_1_2 BynPl_1_1 TorPl_1_4"/>
    </person>
    <person id="pedestrian56" depart="291.00">
        <walk edges="GorSq_1_3 GorSq_1_2 GorSq_2_3"/>
    </person>
    <person id="pedestrian57" depart="301.00">
        <walk edges="TorPl_1_3 TorPl_1_2 TorPl_2_3"/>
    </person>
    <person id="pedestrian58" depart="302.00">
        <walk edges="GowSt_2_2 GowSt_2_1"/>
    </person>
    <person id="pedestrian59" depart="316.00">
        <walk edges="HunSt_1_2 TorPl_2_3 TorPl_2_2 GowSt_1_2"/>
    </person>
    <person id="pedestrian60" depart="322.00">
        <walk edges="TorPl_1_3 TorPl_1_4 BynPl_1_1 BynPl_1_2 BynPl_1_3"/>
    </person>
    <person id="pedestrian61" depart="330.00">
        <walk edges="GorSq_2_3 BynPl_1_3 BynPl_1_2 BynPl_1_1 TorPl_1_4 TorPl_2_2 TorPl_2_3"/>
    </person>
    <person id="pedestrian62" depart="334.00">
        <walk edges="TorPl_1_4 TorPl_1_3 CheMe_1_1"/>
    </person>
    <person id="pedestrian63" depart="337.00">
        <walk edges="TorPl_2_4 TorPl_1_2 TorPl_1_3 TorPl_1_4 BynPl_1_1 BynPl_1_2"/>
    </person>
    <person id="pedestrian64" depart="354.00">
        <walk edges="RidGa_2_1 TorPl_2_2 TorPl_1_4"/>
    </person>
    <person id="pedestrian65" depart="357.00">
        <walk edges="BynPl_1_3 BynPl_1_2 BynPl_1_1"/>
    </person>
    <person id="pedestrian66" depart="360.00">
        <walk edges="GorSq_1_1 GorSq_1_2"/>
    </person>
    <person id="pedestrian67" depart="364.00">
        <walk edges="TorPl_1_1 TorPl_1_2 TorPl_1_3 TorPl_1_4 BynPl_1_1 BynPl_2_2"/>
    </person>
    <person id="pedestrian68" depart="365.00">
        <walk edges="BynPl_2_1 BynPl_2_2 BynPl_1_1 MalPl_2_1"/>
    </person>
    <person id="pedestrian69" depart="366.00">
        <walk edges="TorPl_1_4 BynPl_1_1 BynPl_1_2 BynPl_1_3 GorSq_1_2"/>
    </person>
    <person id="pedestrian70" depart="370.00">
        <walk edges="HunSt_2_2 TorPl_1_2 TorPl_1_3 TorPl_1_4 BynPl_1_1 BynPl_1_2 BynPl_1_3 GorSq_1_1"/>
    </person>
    <person id="pedestrian71" depart="371.00">
        <walk edges="GowSt_2_1 TorPl_1_4 BynPl_1_1 BynPl_1_2 BynPl_1_3 GorSq_1_2"/>
    </person>
    <person id="pedestrian72" depart="373.00">
        <walk edges="TorPl_2_1 GowSt_1_1"/>
    </person>
    <person id="pedestrian73" depart="384.00">
        <walk edges="BynPl_1_3 BynPl_2_2 BynPl_2_3 MalSt_1_1"/>
    </person>
    <person id="pedestrian74" depart="385.00">
        <walk edges="BynPl_2_2 BynPl_1_1 TorPl_1_4 TorPl_1_3 CheMe_2_1"/>
    </person>
    <person id="pedestrian75" depart="386.00">
        <walk edges="GorSq_1_2 BynPl_1_3"/>
    </person>
    <person id="pedestrian76" depart="386.00">
        <walk edges="GowSt_1_2 TorPl_1_4 BynPl_1_1 BynPl_1_2 BynPl_1_3 GorSq_1_2 GorSq_1_3"/>
    </person>
    <person id="pedestrian77" depart="387.00">
        <walk edges="GowSt_2_1 GowSt_1_2"/>
    </person>
    <person id="pedestrian78" depart="390.00">
        <walk edges="TorPl_1_3 TorPl_1_4 BynPl_1_1 BynPl_1_2 BynPl_1_3"/>
    </person>
    <person id="pedestrian79" depart="396.00">
        <walk edges="RidGa_2_1 TorPl_2_3 TorPl_1_2"/>
    </person>
    <person id="pedestrian80" depart="402.00">
        <walk edges="TorPl_2_1 BynPl_2_3 BynPl_2_2 BynPl_2_1"/>
    </person>
    <person id="pedestrian81" depart="404.00">
        <walk edges="GorSq_2_3 BynPl_1_3 BynPl_1_2 BynPl_1_1 TorPl_1_4"/>
    </person>
    <person id="pedestrian82" depart="412.00">
        <walk edges="TorPl_1_2 HunSt_2_2"/>
    </person>
    <person id="pedestrian83" depart="415.00">
        <walk edges="TorPl_1_4 TorPl_1_3 TorPl_1_2 HunSt_2_1"/>
    </person>
    <person id="pedestrian84" depart="419.00">
        <walk edges="GorSq_1_2 BynPl_1_3 BynPl_1_2 BynPl_1_1 TorPl_1_4 TorPl_1_3 TorPl_1_2 HunSt_1_1"/>
    </person>
    <person id="pedestrian85" depart="432.00">
        <walk edges="MalPl_2_1 TorPl_1_4"/>
    </person>
    <person id="pedestrian86" depart="434.00">
        <walk edges="GorSq_1_3 GorSq_1_2 BynPl_1_3"/>
    </person>
    <person id="pedestrian87" depart="436.00">
        <walk edges="HunSt_2_2"/>
    </person>
    <person id="pedestrian88" depart="442.00">
        <walk edges="GowSt_2_1 TorPl_2_2 RidGa_1_1"/>
    </person>
    <person id="pedestrian89" depart="446.00">
        <walk edges="HunSt_2_2 TorPl_1_2 TorPl_1_3 TorPl_1_4 BynPl_2_3"/>
    </person>
    <person id="pedestrian90" depart="452.00">
        <walk edges="GorSq_2_3 BynPl_1_3 BynPl_1_2 BynPl_1_1 TorPl_1_4 TorPl_2_2 RidGa_1_1"/>
    </person>
    <person id="pedestrian91" depart="452.00">
        <walk edges="GorSq_1_1 BynPl_1_3 BynPl_1_2 BynPl_1_1 TorPl_1_4 TorPl_1_3 TorPl_1_2 TorPl_1_1"/>
    </person>
    <person id="pedestrian92" depart="454.00">
        <walk edges="CheMe_1_1 TorPl_1_3 TorPl_1_4 BynPl_1_1 BynPl_1_2 BynPl_1_3 GorSq_2_3"/>
    </person>
    <person id="pedestrian93" depart="454.00">
        <walk edges="GowSt_2_2 TorPl_1_4 BynPl_1_1"/>
    </person>
    <person id="pedestrian94" depart="455.00">
        <walk edges="BynPl_1_2 BynPl_1_1 TorPl_1_4 TorPl_1_3 CheMe_1_1"/>
    </person>
    <person id="pedestrian95" depart="460.00">
        <walk edges="RidGa_2_1 TorPl_2_2 TorPl_1_4 BynPl_1_1 BynPl_1_2 BynPl_1_3 GorSq_1_2 GorSq_1_3"/>
    </person>
    <person id="pedestrian96" depart="462.00">
        <walk edges="GorSq_2_1 GorSq_1_2 BynPl_1_3 BynPl_1_2"/>
    </person>
    <person id="pedestrian97" depart="467.00">
        <walk edges="MalPl_2_1 TorPl_1_4 TorPl_1_3 TorPl_1_2"/>
    </person>
    <person id="pedestrian98" depart="470.00">
        <walk edges="TorPl_1_2 TorPl_1_3 TorPl_1_4 BynPl_1_1 BynPl_2_2 BynPl_2_1 GorSq_2_2"/>
    </person>
    <person id="pedestrian99" depart="471.00">
        <walk edges="TorPl_1_3 TorPl_1_4 BynPl_1_1 BynPl_1_2 BynPl_1_3 GorSq_1_2 GorSq_1_3"/>
    </person>
    <person id="pedestrian100" depart="472.00">
        <walk edges="MalPl_1_1 TorPl_1_4 TorPl_1_3 CheMe_1_1"/>
    </person>
    <person id="pedestrian101" depart="472.00">
        <walk edges="GorSq_2_2 BynPl_2_1 BynPl_2_2 BynPl_1_1 TorPl_1_4 TorPl_1_3 TorPl_1_2"/>
    </person>
    <person id="pedestrian102" depart="473.00">
        <walk edges="MalSt_2_1 BynPl_2_3 BynPl_2_2 BynPl_1_3 GorSq_1_2 GorSq_1_3"/>
    </person>
    <person id="pedestrian103" depart="474.00">
        <walk edges="MalSt_2_1 BynPl_2_3 BynPl_2_2 BynPl_1_3"/>
    </person>
    <person id="pedestrian104" depart="477.00">
        <walk edges="GorSq_2_1 GorSq_2_2 BynPl_2_1 BynPl_2_2 BynPl_1_1"/>
    </person>
    <person id="pedestrian105" depart="498.00">
        <walk edges="TorPl_2_2 GowSt_2_1"/>
    </person>
    <person id="pedestrian106" depart="500.00">
        <walk edges="GowSt_1_2 TorPl_1_3 TorPl_1_2"/>
    </person>
    <person id="pedestrian107" depart="510.00">
        <walk edges="BynPl_1_2 BynPl_1_1 TorPl_1_4 TorPl_1_3 TorPl_1_2 HunSt_2_2"/>
    </person>
    <person id="pedestrian108" depart="515.00">
        <walk edges="BynPl_1_1 BynPl_1_2 BynPl_1_3 GorSq_1_2"/>
    </person>
    <person id="pedestrian109" depart="517.00">
        <walk edges="RidGa_1_1 TorPl_2_3 HunSt_2_1"/>
    </person>
    <person id="pedestrian110" depart="526.00">
        <walk edges="GorSq_2_1 GorSq_2_2 BynPl_2_1 BynPl_2_2 BynPl_2_3 TorPl_2_1 TorPl_2_2 TorPl_2_3 HunSt_1_2"/>
    </person>
    <person id="pedestrian111" depart="530.00">
        <walk edges="BynPl_1_3 BynPl_1_2 BynPl_1_1 TorPl_1_4 GowSt_2_1"/>
    </person>
    <person id="pedestrian112" depart="534.00">
        <walk edges="BynPl_1_2 BynPl_1_3 GorSq_1_1"/>
    </person>
    <person id="pedestrian113" depart="536.00">
        <walk edges="TorPl_2_4 TorPl_1_2 TorPl_1_3 GowSt_2_2"/>
    </person>
    <person id="pedestrian114" depart="536.00">
        <walk edges="MalPl_1_1 MalPl_2_1"/>
    </person>
    <person id="pedestrian115" depart="539.00">
        <walk edges="MalPl_1_1 TorPl_1_4 GowSt_1_2"/>
    </person>
    <person id="pedestrian116" depart="544.00">
        <walk edges="RidGa_2_1 TorPl_2_2 GowSt_2_2"/>
    </person>
    <person id="pedestrian117" depart="554.00">
        <walk edges="RidGa_1_1 TorPl_2_3 HunSt_1_1"/>
    </person>
    <person id="pedestrian118" depart="560.00">
        <walk edges="TorPl_2_2 TorPl_2_1"/>
    </person>
    <person id="pedestrian119" depart="562.00">
        <walk edges="CheMe_1_1 TorPl_1_3 TorPl_1_4 MalSt_1_1"/>
    </person>
    <person id="pedestrian120" depart="573.00">
        <walk edges="GorSq_2_2 BynPl_2_1 BynPl_2_2 BynPl_1_1 TorPl_1_4 TorPl_1_3 TorPl_1_2 HunSt_1_1"/>
    </person>
    <person id="pedestrian121" depart="574.00">
        <walk edges="GorSq_2_1 GorSq_2_2 BynPl_2_1 BynPl_2_2 BynPl_1_1 TorPl_1_4 TorPl_1_3 CheMe_1_1"/>
    </person>
    <person id="pedestrian122" depart="575.00">
        <walk edges="TorPl_1_3 TorPl_1_2"/>
    </person>
    <person id="pedestrian123" depart="576.00">
        <walk edges="GowSt_1_2 TorPl_1_4 BynPl_1_1 BynPl_1_2 BynPl_1_3 GorSq_1_2 GorSq_1_3"/>
    </person>
    <person id="pedestrian124" depart="583.00">
        <walk edges="GowSt_1_1 TorPl_1_3 TorPl_1_2 HunSt_2_2"/>
    </person>
    <person id="pedestrian125" depart="587.00">
        <walk edges="CheMe_1_1 TorPl_1_3 TorPl_1_4 MalPl_1_1"/>
    </person>
    <person id="pedestrian126" depart="589.00">
        <walk edges="GowSt_2_2 TorPl_1_4 BynPl_1_1"/>
    </person>
    <person id="pedestrian127" depart="591.00">
        <walk edges="MalPl_2_1 MalPl_1_1"/>
    </person>
    <person id="pedestrian128" depart="593.00">
        <walk edges="RidGa_2_1 TorPl_2_2 TorPl_2_1"/>
    </person>
    <person id="pedestrian129" depart="595.00">
        <walk edges="GowSt_2_1 TorPl_1_3 CheMe_2_1"/>
    </person>
    <person id="pedestrian130" depart="600.00">
        <walk edges="CheMe_2_1 TorPl_1_2 HunSt_1_2"/>
    </person>
    <person id="pedestrian131" depart="601.00">
        <walk edges="CheMe_2_1 TorPl_1_3 TorPl_1_4 BynPl_1_1 BynPl_1_2"/>
    </person>
    <person id="pedestrian132" depart="604.00">
        <walk edges="GorSq_2_1 GorSq_1_2 GorSq_2_3"/>
    </person>
    <person id="pedestrian133" depart="610.00">
        <walk edges="GorSq_2_3 GorSq_1_1"/>
    </person>
    <person id="pedestrian134" depart="610.00">
        <walk edges="CheMe_2_1 TorPl_1_3 TorPl_1_4 MalSt_1_1"/>
    </person>
    <person id="pedestrian135" depart="613.00">
        <walk edges="GorSq_2_1 GorSq_2_2 BynPl_2_1 BynPl_2_2 BynPl_1_1 MalPl_2_1"/>
    </person>
    <person id="pedestrian136" depart="620.00">
        <walk edges="BynPl_2_2 BynPl_1_1 TorPl_1_4"/>
    </person>
    <person id="pedestrian137" depart="623.00">
        <walk edges="HunSt_2_1 TorPl_1_2 TorPl_1_3 TorPl_1_4 BynPl_1_1 BynPl_1_2 BynPl_1_3 GorSq_2_3"/>
    </person>
    <person id="pedestrian138" depart="623.00">
        <walk edges="TorPl_1_3 GowSt_2_1"/>
    </person>
    <person id="pedestrian139" depart="628.00">
        <walk edges="GorSq_1_1 BynPl_1_3 BynPl_1_2 BynPl_1_1 TorPl_1_4 TorPl_1_3 TorPl_1_2 HunSt_2_2"/>
    </person>
    <person id="pedestrian140" depart="631.00">
        <walk edges="GorSq_1_2 BynPl_1_3 BynPl_1_2 BynPl_1_1 TorPl_1_4 GowSt_1_1"/>
    </person>
    <person id="pedestrian141" depart="633.00">
        <walk edges="MalSt_1_1 BynPl_2_3"/>
    </person>
    <person id="pedestrian142" depart="635.00">
        <walk edges="RidGa_2_1 TorPl_2_2"/>
    </person>
    <person id="pedestrian143" depart="637.00">
        <walk edges="GowSt_1_2 TorPl_1_3 CheMe_1_1"/>
    </person>
    <person id="pedestrian144" depart="637.00">
        <walk edges="BynPl_1_3 BynPl_1_2 BynPl_1_1 MalPl_2_1"/>
    </person>
    <person id="pedestrian145" depart="641.00">
        <walk edges="GowSt_2_1 TorPl_2_1 BynPl_2_3 BynPl_2_2 BynPl_2_1 GorSq_2_2 GorSq_2_1"/>
    </person>
    <person id="pedestrian146" depart="654.00">
        <walk edges="TorPl_1_1 TorPl_2_3 TorPl_2_2"/>
    </person>
    <person id="pedestrian147" depart="660.00">
        <walk edges="GorSq_2_3 BynPl_1_3 BynPl_1_2 BynPl_1_1 TorPl_1_4 GowSt_2_1"/>
    </person>
    <person id="pedestrian148" depart="661.00">
        <walk edges="TorPl_1_1 TorPl_1_2 TorPl_1_3 TorPl_1_4 BynPl_1_1"/>
    </person>
    <person id="pedestrian149" depart="663.00">
        <walk edges="BynPl_1_3 BynPl_1_2 BynPl_1_1 TorPl_1_4 GowSt_1_1"/>
    </person>
    <person id="pedestrian150" depart="682.00">
        <walk edges="BynPl_1_2 BynPl_1_1 TorPl_1_4 TorPl_1_3 TorPl_1_2 TorPl_2_4"/>
    </person>
    <person id="pedestrian151" depart="702.00">
        <walk edges="CheMe_2_1 TorPl_1_3 GowSt_1_2"/>
    </person>
    <person id="pedestrian152" depart="706.00">
        <walk edges="MalSt_2_1 MalPl_2_1"/>
    </person>
    <person id="pedestrian153" depart="727.00">
        <walk edges="TorPl_2_2 GowSt_2_1"/>
    </person>
    <person id="pedestrian154" depart="738.00">
        <walk edges="TorPl_1_4 BynPl_1_1 BynPl_1_2 BynPl_1_3"/>
    </person>
    <person id="pedestrian155" depart="739.00">
        <walk edges="TorPl_2_4 TorPl_1_2 TorPl_1_3 TorPl_1_4 BynPl_1_1"/>
    </person>
    <person id="pedestrian156" depart="742.00">
        <walk edges="TorPl_2_1 TorPl_1_3 TorPl_1_2"/>
    </person>
    <person id="pedestrian157" depart="752.00">
        <walk edges="GowSt_1_2 TorPl_2_1 BynPl_2_3"/>
    </person>
    <person id="pedestrian158" depart="752.00">
        <walk edges="BynPl_1_3 BynPl_2_2 BynPl_2_3 TorPl_2_1"/>
    </person>
    <person id="pedestrian159" depart="753.00">
        <walk edges="BynPl_1_2 BynPl_1_1 TorPl_1_4 TorPl_1_3 TorPl_1_2 HunSt_2_2"/>
    </person>
    <person id="pedestrian160" depart="759.00">
        <walk edges="GowSt_1_1 TorPl_1_4 MalSt_1_1"/>
    </person>
    <person id="pedestrian161" depart="759.00">
        <walk edges="BynPl_1_1 MalPl_2_1"/>
    </person>
    <person id="pedestrian162" depart="760.00">
        <walk edges="GorSq_2_1 GorSq_2_2 BynPl_2_1 BynPl_2_2 BynPl_2_3 MalSt_1_1"/>
    </person>
    <person id="pedestrian163" depart="760.00">
        <walk edges="GowSt_2_1 TorPl_1_4 BynPl_1_1"/>
    </person>
    <person id="pedestrian164" depart="761.00">
        <walk edges="MalSt_2_1 BynPl_2_3 BynPl_2_2 BynPl_1_3 GorSq_1_2 GorSq_1_3"/>
    </person>
    <person id="pedestrian165" depart="764.00">
        <walk edges="TorPl_1_4 MalSt_1_1"/>
    </person>
    <person id="pedestrian166" depart="765.00">
        <walk edges="BynPl_1_2 BynPl_2_3 TorPl_2_1"/>
    </person>
    <person id="pedestrian167" depart="766.00">
        <walk edges="TorPl_1_4 TorPl_1_3 CheMe_2_1"/>
    </person>
    <person id="pedestrian168" depart="775.00">
        <walk edges="MalPl_1_1 BynPl_1_1 BynPl_1_2 BynPl_1_3 GorSq_1_1"/>
    </person>
    <person id="pedestrian169" depart="780.00">
        <walk edges="GorSq_2_2 BynPl_2_1 BynPl_2_2 BynPl_1_1 TorPl_1_4"/>
    </person>
    <person id="pedestrian170" depart="782.00">
        <walk edges="RidGa_2_1 TorPl_2_2 TorPl_2_1 BynPl_2_3 BynPl_2_2 BynPl_2_1"/>
    </person>
    <person id="pedestrian171" depart="786.00">
        <walk edges="GorSq_1_1 BynPl_1_3 BynPl_2_1 GorSq_2_2"/>
    </person>
    <person id="pedestrian172" depart="788.00">
        <walk edges="TorPl_2_1 TorPl_2_2 RidGa_1_1"/>
    </person>
    <person id="pedestrian173" depart="789.00">
        <walk edges="BynPl_1_2 BynPl_1_3 GorSq_2_3"/>
    </person>
    <person id="pedestrian174" depart="795.00">
        <walk edges="MalPl_1_1"/>
    </person>
    <person id="pedestrian175" depart="804.00">
        <walk edges="CheMe_2_1 TorPl_1_2 TorPl_2_4"/>
    </person>
    <person id="pedestrian176" depart="812.00">
        <walk edges="RidGa_2_1 TorPl_2_2 TorPl_1_4 MalPl_1_1"/>
    </person>
    <person id="pedestrian177" depart="812.00">
        <walk edges="TorPl_2_1 MalPl_1_1"/>
    </person>
    <person id="pedestrian178" depart="820.00">
        <walk edges="TorPl_1_1 TorPl_1_2"/>
    </person>
    <person id="pedestrian179" depart="828.00">
        <walk edges="GorSq_1_3 GorSq_1_2 BynPl_1_3 BynPl_1_2 BynPl_1_1 TorPl_1_4 GowSt_1_2"/>
    </person>
    <person id="pedestrian180" depart="837.00">
        <walk edges="HunSt_2_1"/>
    </person>
    <person id="pedestrian181" depart="839.00">
        <walk edges="GorSq_1_2 BynPl_1_3 BynPl_1_2 BynPl_1_1 MalPl_1_1"/>
    </person>
    <person id="pedestrian182" depart="841.00">
        <walk edges="BynPl_2_3 BynPl_2_2 BynPl_1_3 GorSq_1_1"/>
    </person>
    <person id="pedestrian183" depart="842.00">
        <walk edges="BynPl_2_3 BynPl_2_2"/>
    </person>
    <person id="pedestrian184" depart="843.00">
        <walk edges="HunSt_1_1 TorPl_1_2 CheMe_1_1"/>
    </person>
    <person id="pedestrian185" depart="854.00">
        <walk edges="RidGa_2_1 TorPl_2_3 TorPl_1_2 CheMe_1_1"/>
    </person>
    <person id="pedestrian186" depart="858.00">
        <walk edges="GorSq_1_2 BynPl_1_3 BynPl_1_2 BynPl_1_1 TorPl_1_4 GowSt_2_1"/>
    </person>
    <person id="pedestrian187" depart="868.00">
        <walk edges="HunSt_1_1 TorPl_1_2 TorPl_1_3 GowSt_1_1"/>
    </person>
    <person id="pedestrian188" depart="877.00">
        <walk edges="RidGa_2_1 TorPl_2_2 GowSt_2_2"/>
    </person>
    <person id="pedestrian189" depart="878.00">
        <walk edges="GorSq_1_3 GorSq_1_2 BynPl_1_3 BynPl_1_2 BynPl_1_1 TorPl_1_4 TorPl_1_3 CheMe_1_1"/>
    </person>
    <person id="pedestrian190" depart="880.00">
        <walk edges="RidGa_1_1 TorPl_2_2 TorPl_2_1 BynPl_2_3 BynPl_2_2 BynPl_2_1 GorSq_2_2 GorSq_2_1"/>
    </person>
    <person id="pedestrian191" depart="902.00">
        <walk edges="RidGa_2_1 TorPl_2_2 GowSt_1_2"/>
    </person>
    <person id="pedestrian192" depart="905.00">
        <walk edges="BynPl_1_2 BynPl_1_3 GorSq_2_3"/>
    </person>
    <person id="pedestrian193" depart="917.00">
        <walk edges="MalPl_2_1 BynPl_1_1 BynPl_1_2 BynPl_1_3 GorSq_1_1"/>
    </person>
    <person id="pedestrian194" depart="922.00">
        <walk edges="GorSq_2_3 BynPl_1_3 BynPl_1_2 BynPl_1_1 TorPl_1_4"/>
    </person>
    <person id="pedestrian195" depart="926.00">
        <walk edges="TorPl_1_1 TorPl_2_3 TorPl_2_2 GowSt_1_2"/>
    </person>
    <person id="pedestrian196" depart="927.00">
        <walk edges="MalPl_1_1 TorPl_1_4 TorPl_1_3 TorPl_1_2 TorPl_2_4"/>
    </person>
    <person id="pedestrian197" depart="945.00">
        <walk edges="GowSt_1_2 TorPl_2_2 RidGa_2_1"/>
    </person>
    <person id="pedestrian198" depart="948.00">
        <walk edges="HunSt_2_2 TorPl_2_3 TorPl_2_2"/>
    </person>
    <person id="pedestrian199" depart="949.00">
        <walk edges="MalPl_1_1 TorPl_1_4 GowSt_2_2"/>
    </person>
    <person id="pedestrian200" depart="950.00">
        <walk edges="TorPl_1_1 HunSt_1_2"/>
    </person>
    <person id="pedestrian201" depart="951.00">
        <walk edges="MalSt_1_1 BynPl_1_1"/>
    </person>
    <person id="pedestrian202" depart="952.00">
        <walk edges="MalPl_2_1 BynPl_1_1 BynPl_1_2"/>
    </person>
    <person id="pedestrian203" depart="954.00">
        <walk edges="GorSq_1_2 GorSq_2_2"/>
    </person>
    <person id="pedestrian204" depart="960.00">
        <walk edges="HunSt_1_2 TorPl_2_3 TorPl_2_2 TorPl_1_4 BynPl_1_1 BynPl_1_2 BynPl_1_3 GorSq_1_2"/>
    </person>
    <person id="pedestrian205" depart="963.00">
        <walk edges="HunSt_1_1"/>
    </person>
    <person id="pedestrian206" depart="970.00">
        <walk edges="BynPl_2_3 BynPl_2_2 BynPl_1_3 GorSq_1_2 GorSq_1_3"/>
    </person>
    <person id="pedestrian207" depart="977.00">
        <walk edges="GorSq_2_3 BynPl_1_3 BynPl_1_2 BynPl_1_1 TorPl_1_4 TorPl_2_2 RidGa_1_1"/>
    </person>
    <person id="pedestrian208" depart="980.00">
        <walk edges="TorPl_1_3 TorPl_1_4 BynPl_1_1 BynPl_1_2 BynPl_1_3 GorSq_1_2"/>
    </person>
    <person id="pedestrian209" depart="982.00">
        <walk edges="GorSq_2_1 GorSq_1_2 BynPl_1_3"/>
    </person>
    <person id="pedestrian210" depart="982.00">
        <walk edges="HunSt_2_1 TorPl_1_2 TorPl_1_3 TorPl_1_4 BynPl_1_1 BynPl_1_2 BynPl_1_3"/>
    </person>
    <person id="pedestrian211" depart="986.00">
        <walk edges="MalSt_1_1 TorPl_1_4"/>
    </person>
    <person id="pedestrian212" depart="988.00">
        <walk edges="TorPl_2_1 GowSt_1_1"/>
    </person>
    <person id="pedestrian213" depart="999.00">
        <walk edges="TorPl_2_1 TorPl_2_2 TorPl_2_3 HunSt_1_1"/>
    </person>
    <person id="pedestrian214" depart="1000.00">
        <walk edges="GorSq_2_2 BynPl_2_1 BynPl_2_2 BynPl_2_3 TorPl_2_1"/>
    </person>
    <person id="pedestrian215" depart="1008.00">
        <walk edges="TorPl_2_4 TorPl_2_3 TorPl_2_2 TorPl_2_1 BynPl_2_3 BynPl_2_2 BynPl_2_1 GorSq_2_2"/>
    </person>
    <person id="pedestrian216" depart="1015.00">
        <walk edges="GorSq_2_1 GorSq_2_2 BynPl_2_1 BynPl_2_2"/>
    </person>
    <person id="pedestrian217" depart="1016.00">
        <walk edges="GorSq_2_3 BynPl_1_3 BynPl_1_2 BynPl_1_1 TorPl_1_4 GowSt_1_1"/>
    </person>
    <person id="pedestrian218" depart="1023.00">
        <walk edges="GorSq_2_1 GorSq_2_2 BynPl_2_1 BynPl_2_2 BynPl_2_3 TorPl_2_1"/>
    </person>
    <person id="pedestrian219" depart="1034.00">
        <walk edges="TorPl_1_3 TorPl_1_2 TorPl_2_3 RidGa_1_1"/>
    </person>
    <person id="pedestrian220" depart="1039.00">
        <walk edges="CheMe_1_1 TorPl_1_2 TorPl_2_3 RidGa_1_1"/>
    </person>
    <person id="pedestrian221" depart="1048.00">
        <walk edges="BynPl_2_2 BynPl_1_1 TorPl_1_4 GowSt_1_1"/>
    </person>
    <person id="pedestrian222" depart="1049.00">
        <walk edges="GorSq_1_1 BynPl_1_3 BynPl_1_2 BynPl_1_1 TorPl_1_4 TorPl_1_3"/>
    </person>
    <person id="pedestrian223" depart="1051.00">
        <walk edges="BynPl_2_3 TorPl_1_4 TorPl_1_3 TorPl_1_2 HunSt_2_2"/>
    </person>