<?xml version="1.0" encoding="UTF-8"?>

<!-- generated on 2026-01-14 16:48:41.083571 by Eclipse SUMO randomTrips.py UNKNOWN
<configuration>
    <net-file value="../networks/demo/main.net.xml"/>
    <output-trip-file value="../routes/demo/eval/50/pedestrian.trips.xml"/>
    <route-file value="../routes/demo/eval/50/pedestrian.rou.xml"/>
    <pedestrians value="True"/>
    <prefix value="pedestrian"/>
    <seed value="50"/>
    <insertion-density value="300.0"/>
    <binomial value="100"/>
</configuration>
-->

<!-- generated on 2026-01-14T16:48:41.061740+00:00 by Eclipse SUMO duarouter 1.25.0
<duarouterConfiguration xmlns:xsi="http://www.w3.org/2001/XMLSchema-instance" xsi:noNamespaceSchemaLocation="http://sumo.dlr.de/xsd/duarouterConfiguration.xsd">

    <input>
        <net-file value="../networks/demo/main.net.xml"/>
        <route-files value="../routes/demo/eval/50/pedestrian.trips.xml"/>
    </input>

    <output>
        <output-file value="../routes/demo/eval/50/pedestrian.rou.xml"/>
        <alternatives-output value="NUL"/>
    </output>

    <time>
        <begin value="0"/>
        <end value="3600.0"/>
    </time>

    <report>
        <no-warnings value="true"/>
        <ignore-errors value="true"/>
        <no-step-log value="true"/>
    </report>

</duarouterConfiguration>
-->

<routes xmlns:xsi="http://www.w3.org/2001/XMLSchema-instance" xsi:noNamespaceSchemaLocation="http://sumo.dlr.de/xsd/routes_file.xsd">
    <person id="pedestrian0" depart="1.00">
        <walk edges="GorSq_1_3 GorSq_1_2 BynPl_1_3 BynPl_1_2 BynPl_1_1 TorPl_1_4 TorPl_2_2"/>
    </person>
    <person id="pedestrian1" depart="2.00">
        <walk edges="MalSt_1_1 BynPl_2_3 BynPl_2_2 BynPl_1_3 GorSq_2_3"/>
    </person>
    <person id="pedestrian2" depart="5.00">
        <walk edges="BynPl_1_3 BynPl_1_2 BynPl_1_1 TorPl_1_4 TorPl_1_3 TorPl_1_2 TorPl_1_1"/>
    </person>
    <person id="pedestrian3" depart="7.00">
        <walk edges="HunSt_1_1 TorPl_1_2 TorPl_1_3 TorPl_1_4 MalSt_1_1"/>
    </person>
    <person id="pedestrian4" depart="10.00">
        <walk edges="GowSt_1_2 TorPl_1_4"/>
    </person>
    <person id="pedestrian5" depart="10.00">
        <walk edges="MalSt_2_1 TorPl_2_1 GowSt_1_2"/>
    </person>
    <person id="pedestrian6" depart="11.00">
        <walk edges="GowSt_1_1 TorPl_1_4 BynPl_2_3"/>
    </person>
    <person id="pedestrian7" depart="14.00">
        <walk edges="HunSt_2_2 TorPl_1_2"/>
    </person>
    <person id="pedestrian8" depart="21.00">
        <walk edges="GowSt_2_1 TorPl_1_3 TorPl_1_2"/>
    </person>
    <person id="pedestrian9" depart="23.00">
        <walk edges="GorSq_2_3 BynPl_1_3 BynPl_2_1 GorSq_2_2"/>
    </person>
    <person id="pedestrian10" depart="30.00">
        <walk edges="TorPl_2_4 TorPl_1_1"/>
    </person>
    <person id="pedestrian11" depart="30.00">
        <walk edges="CheMe_2_1 TorPl_1_3 TorPl_1_4 BynPl_2_3"/>
    </person>
    <person id="pedestrian12" depart="31.00">
        <walk edges="TorPl_2_4 HunSt_1_1"/>
    </person>
    <person id="pedestrian13" depart="31.00">
        <walk edges="TorPl_1_3 TorPl_1_2"/>
    </person>
    <person id="pedestrian14" depart="37.00">
        <walk edges="TorPl_2_3 TorPl_1_2"/>
    </person>
    <person id="pedestrian15" depart="38.00">
        <walk edges="MalSt_1_1 TorPl_2_1 TorPl_2_2 RidGa_1_1"/>
    </person>
    <person id="pedestrian16" depart="41.00">
        <walk edges="BynPl_2_1 BynPl_2_2 BynPl_2_3 TorPl_2_1 TorPl_2_2 TorPl_2_3 TorPl_2_4"/>
    </person>
    <person id="pedestrian17" depart="41.00">
        <walk edges="GowSt_2_1 TorPl_1_4 BynPl_1_1 BynPl_1_2 BynPl_1_3 GorSq_1_1"/>
    </person>
    <person id="pedestrian18" depart="42.00">
        <walk edges="MalSt_2_1 MalSt_1_1"/>
    </person>
    <person id="pedestrian19" depart="48.00">
        <walk edges="CheMe_1_1 TorPl_1_3"/>
    </person>
    <person id="pedestrian20" depart="54.00">
        <walk edges="GorSq_1_3 GorSq_1_2 BynPl_1_3 BynPl_1_2 BynPl_1_1 TorPl_1_4 TorPl_1_3"/>
    </person>
    <person id="pedestrian21" depart="55.00">
        <walk edges="GorSq_2_1 GorSq_2_2 BynPl_2_1"/>
    </person>
    <person id="pedestrian22" depart="58.00">
        <walk edges="TorPl_2_3 TorPl_2_2 TorPl_2_1 MalSt_1_1"/>
    </person>
    <person id="pedestrian23" depart="60.00">
        <walk edges="TorPl_2_1 TorPl_1_3 TorPl_1_2"/>
    </person>
    <person id="pedestrian24" depart="61.00">
        <walk edges="HunSt_1_2 TorPl_2_3 TorPl_2_2 TorPl_1_4 BynPl_1_1 BynPl_1_2"/>
    </person>
    <person id="pedestrian25" depart="64.00">
        <walk edges="BynPl_1_1 BynPl_1_2"/>
    </person>
    <person id="pedestrian26" depart="66.00">
        <walk edges="GorSq_1_1 BynPl_1_3 BynPl_2_2 BynPl_2_3 TorPl_2_1"/>
    </person>
    <person id="pedestrian27" depart="68.00">
        <walk edges="MalPl_2_1 TorPl_1_4 TorPl_2_2 RidGa_1_1"/>
    </person>
    <person id="pedestrian28" depart="68.00">
        <walk edges="BynPl_2_2 BynPl_1_3 GorSq_1_2 GorSq_1_3"/>
    </person>
    <person id="pedestrian29" depart="68.00">
        <walk edges="GorSq_2_1 GorSq_2_2 BynPl_2_1 BynPl_2_2 BynPl_2_3 TorPl_2_1 TorPl_2_2 TorPl_2_3 TorPl_2_4"/>
    </person>
    <person id="pedestrian30" depart="72.00">
        <walk edges="TorPl_2_3 TorPl_2_2 GowSt_1_2"/>
    </person>
    <person id="pedestrian31" depart="73.00">
        <walk edges="TorPl_1_4 BynPl_1_1 BynPl_1_2"/>
    </person>
    <person id="pedestrian32" depart="76.00">
        <walk edges="BynPl_2_2 BynPl_2_3 TorPl_2_1 GowSt_1_2"/>
    </person>
    <person id="pedestrian33" depart="77.00">
        <walk edges="CheMe_1_1 TorPl_1_3 TorPl_2_1"/>
    </person>
    <person id="pedestrian34" depart="82.00">
        <walk edges="MalSt_2_1 TorPl_2_1 TorPl_2_2 RidGa_1_1"/>
    </person>
    <person id="pedestrian35" depart="85.00">
        <walk edges="GowSt_2_2 TorPl_1_4 BynPl_1_1 BynPl_2_2"/>
    </person>
    <person id="pedestrian36" depart="97.00">
        <walk edges="GorSq_2_2 BynPl_2_1 BynPl_2_2 BynPl_1_1 MalPl_1_1"/>
    </person>
    <person id="pedestrian37" depart="100.00">
        <walk edges="CheMe_1_1 TorPl_1_3 TorPl_2_1 MalSt_2_1"/>
    </person>
    <person id="pedestrian38" depart="100.00">
        <walk edges="HunSt_2_2 TorPl_2_3 RidGa_2_1"/>
    </person>
    <person id="pedestrian39" depart="103.00">
        <walk edges="GorSq_2_1"/>
    </person>
    <person id="pedestrian40" depart="104.00">
        <walk edges="GowSt_1_2 TorPl_1_3 CheMe_2_1"/>
    </person>
    <person id="pedestrian41" depart="106.00">
        <walk edges="CheMe_2_1 TorPl_1_2 TorPl_2_3 RidGa_2_1"/>
    </person>
    <person id="pedestrian42" depart="111.00">
        <walk edges="GowSt_1_1 TorPl_1_4 MalPl_2_1"/>
    </person>
    <person id="pedestrian43" depart="115.00">
        <walk edges="TorPl_1_1 TorPl_1_2 TorPl_1_3 TorPl_1_4 BynPl_1_1 BynPl_1_2 BynPl_1_3 GorSq_1_2"/>
    </person>
    <person id="pedestrian44" depart="117.00">
        <walk edges="GowSt_2_2 TorPl_2_1 MalSt_2_1"/>
    </person>
    <person id="pedestrian45" depart="119.00">
        <walk edges="GowSt_2_1 TorPl_1_4 BynPl_1_1 BynPl_1_2 BynPl_1_3"/>
    </person>
    <person id="pedestrian46" depart="122.00">
        <walk edges="HunSt_1_1 TorPl_1_1"/>
    </person>
    <person id="pedestrian47" depart="124.00">
        <walk edges="RidGa_2_1 TorPl_2_3 TorPl_1_1"/>
    </person>
    <person id="pedestrian48" depart="126.00">
        <walk edges="CheMe_2_1 TorPl_1_3 TorPl_1_4 BynPl_1_1 BynPl_2_2 BynPl_2_1 GorSq_2_2"/>
    </person>
    <person id="pedestrian49" depart="130.00">
        <walk edges="GowSt_1_1 TorPl_1_4 BynPl_1_1 BynPl_2_2"/>
    </person>
    <person id="pedestrian50" depart="132.00">
        <walk edges="TorPl_1_3 TorPl_1_4 BynPl_1_1 BynPl_1_2 BynPl_1_3 GorSq_1_2"/>
    </person>
    <person id="pedestrian51" depart="137.00">
        <walk edges="GorSq_2_1 GorSq_2_2 BynPl_2_1 BynPl_2_2 BynPl_2_3 TorPl_2_1 TorPl_2_2 RidGa_2_1"/>
    </person>
    <person id="pedestrian52" depart="137.00">
        <walk edges="MalSt_2_1 TorPl_2_1 TorPl_2_2"/>
    </person>
    <person id="pedestrian53" depart="137.00">
        <walk edges="BynPl_1_1 MalSt_2_1"/>
    </person>
    <person id="pedestrian54" depart="139.00">
        <walk edges="GowSt_2_1 TorPl_1_3"/>
    </person>
    <person id="pedestrian55" depart="139.00">
        <walk edges="GowSt_2_1 TorPl_2_1 MalSt_1_1"/>
    </person>
    <person id="pedestrian56" depart="141.00">
        <walk edges="BynPl_1_1 TorPl_1_4 TorPl_2_2 RidGa_2_1"/>
    </person>
    <person id="pedestrian57" depart="143.00">
        <walk edges="GorSq_2_3 BynPl_1_3 BynPl_2_2 BynPl_2_3 MalSt_1_1"/>
    </person>
    <person id="pedestrian58" depart="144.00">
        <walk edges="RidGa_1_1 TorPl_2_2 TorPl_2_1 BynPl_2_3"/>
    </person>
    <person id="pedestrian59" depart="146.00">
        <walk edges="GowSt_1_2 TorPl_1_3 CheMe_1_1"/>
    </person>
    <person id="pedestrian60" depart="149.00">
        <walk edges="BynPl_2_1 BynPl_2_2 BynPl_2_3 TorPl_2_1 GowSt_1_2"/>
    </person>
    <person id="pedestrian61" depart="154.00">
        <walk edges="TorPl_1_1 TorPl_1_2 TorPl_1_3 TorPl_1_4 BynPl_1_1 BynPl_1_2 BynPl_1_3 GorSq_1_1"/>
    </person>
    <person id="pedestrian62" depart="155.00">
        <walk edges="GowSt_2_2 TorPl_2_1"/>
    </person>
    <person id="pedestrian63" depart="156.00">
        <walk edges="HunSt_2_1 TorPl_2_3 TorPl_2_2 TorPl_2_1 BynPl_2_3"/>
    </person>
    <person id="pedestrian64" depart="160.00">
        <walk edges="RidGa_2_1 TorPl_2_2 TorPl_2_1 MalSt_2_1"/>
    </person>
    <person id="pedestrian65" depart="160.00">
        <walk edges="TorPl_1_3 GowSt_2_1"/>
    </person>
    <person id="pedestrian66" depart="162.00">
        <walk edges="BynPl_2_3 TorPl_1_4"/>
    </person>
    <person id="pedestrian67" depart="163.00">
        <walk edges="HunSt_2_2 TorPl_1_2 TorPl_1_3 TorPl_1_4 BynPl_1_1 BynPl_1_2 BynPl_1_3"/>
    </person>
    <person id="pedestrian68" depart="167.00">
        <walk edges="HunSt_1_2 TorPl_2_3 TorPl_2_2 TorPl_1_4 BynPl_1_1 BynPl_1_2 BynPl_1_3 GorSq_1_1"/>
    </person>
    <person id="pedestrian69" depart="173.00">
        <walk edges="BynPl_2_3 MalSt_1_1"/>
    </person>
    <person id="pedestrian70" depart="176.00">
        <walk edges="GorSq_2_3 BynPl_1_3 BynPl_1_2 BynPl_1_1 TorPl_1_4 TorPl_1_3 TorPl_1_2 TorPl_2_4"/>
    </person>
    <person id="pedestrian71" depart="179.00">
        <walk edges="TorPl_1_1 HunSt_2_1"/>
    </person>
    <person id="pedestrian72" depart="189.00">
        <walk edges="GorSq_1_1 BynPl_1_3 BynPl_1_2 BynPl_1_1 TorPl_1_4 GowSt_1_2"/>
    </person>
    <person id="pedestrian73" depart="192.00">
        <walk edges="GorSq_2_1 GorSq_2_2 BynPl_2_1 BynPl_2_2 BynPl_1_1 MalPl_2_1"/>
    </person>
    <person id="pedestrian74" depart="193.00">
        <walk edges="MalSt_2_1 TorPl_2_1 TorPl_2_2"/>
    </person>
    <person id="pedestrian75" depart="199.00">
        <walk edges="GorSq_1_3 GorSq_1_2 BynPl_1_3 BynPl_1_2 BynPl_1_1 TorPl_1_4 GowSt_2_2"/>
    </person>
    <person id="pedestrian76" depart="203.00">
        <walk edges="MalSt_2_1 TorPl_2_1 GowSt_1_1"/>
    </person>
    <person id="pedestrian77" depart="204.00">
        <walk edges="BynPl_1_2 BynPl_1_3 GorSq_1_1"/>
    </person>
    <person id="pedestrian78" depart="210.00">
        <walk edges="HunSt_1_2 TorPl_2_3 TorPl_2_2 TorPl_2_1 BynPl_2_3 BynPl_2_2 BynPl_2_1"/>
    </person>
    <person id="pedestrian79" depart="214.00">
        <walk edges="MalSt_1_1 TorPl_1_4 TorPl_1_3 TorPl_1_2 HunSt_1_1"/>
    </person>
    <person id="pedestrian80" depart="222.00">
        <walk edges="GowSt_1_1 TorPl_1_3 CheMe_1_1"/>
    </person>
    <person id="pedestrian81" depart="223.00">
        <walk edges="GowSt_2_2 TorPl_1_4 BynPl_1_1 BynPl_2_2 BynPl_2_1"/>
    </person>
    <person id="pedestrian82" depart="233.00">
        <walk edges="MalSt_1_1 TorPl_1_4 TorPl_1_3 CheMe_2_1"/>
    </person>
    <person id="pedestrian83" depart="233.00">
        <walk edges="HunSt_1_2 TorPl_2_3 TorPl_2_2"/>
    </person>
    <person id="pedestrian84" depart="233.00">
        <walk edges="GowSt_1_2 TorPl_2_2 RidGa_2_1"/>
    </person>
    <person id="pedestrian85" depart="234.00">
        <walk edges="GowSt_1_2 TorPl_1_3 TorPl_1_2"/>
    </person>
    <person id="pedestrian86" depart="237.00">
        <walk edges="TorPl_1_4 GowSt_1_1"/>
    </person>
    <person id="pedestrian87" depart="237.00">
        <walk edges="TorPl_1_4 BynPl_1_1 BynPl_1_2 BynPl_1_3 GorSq_1_1"/>
    </person>
    <person id="pedestrian88" depart="240.00">
        <walk edges="BynPl_1_1 TorPl_1_4 TorPl_1_3 TorPl_1_2 TorPl_2_4"/>
    </person>
    <person id="pedestrian89" depart="241.00">
        <walk edges="BynPl_2_3 BynPl_2_2 BynPl_1_3 GorSq_1_2 GorSq_1_3"/>
    </person>
    <person id="pedestrian90" depart="242.00">
        <walk edges="HunSt_2_1 TorPl_2_3 TorPl_2_2 TorPl_2_1 BynPl_2_3 BynPl_2_2 BynPl_2_1"/>
    </person>
    <person id="pedestrian91" depart="252.00">
        <walk edges="TorPl_2_1 BynPl_1_1"/>
    </person>
    <person id="pedestrian92" depart="252.00">
        <walk edges="BynPl_2_3 BynPl_1_1"/>
    </person>
    <person id="pedestrian93" depart="255.00">
        <walk edges="BynPl_2_1 BynPl_2_2 BynPl_1_1 TorPl_1_4 GowSt_1_1"/>
    </person>
    <person id="pedestrian94" depart="260.00">
        <walk edges="HunSt_1_1 TorPl_1_2 TorPl_1_3 TorPl_1_4"/>
    </person>
    <person id="pedestrian95" depart="262.00">
        <walk edges="MalPl_1_1 BynPl_1_1 BynPl_2_2"/>
    </person>
    <person id="pedestrian96" depart="262.00">
        <walk edges="MalPl_1_1 TorPl_1_4"/>
    </person>
    <person id="pedestrian97" depart="273.00">
        <walk edges="TorPl_2_1 TorPl_2_2 TorPl_2_3 HunSt_1_1"/>
    </person>
    <person id="pedestrian98" depart="274.00">
        <walk edges="GorSq_1_1 BynPl_1_3 BynPl_2_2 BynPl_2_3 MalSt_1_1"/>
    </person>
    <person id="pedestrian99" depart="274.00">
        <walk edges="MalSt_2_1"/>
    </person>
    <person id="pedestrian100" depart="276.00">
        <walk edges="BynPl_2_1 BynPl_2_2 BynPl_2_3 TorPl_2_1 TorPl_2_2 RidGa_1_1"/>
    </person>
    <person id="pedestrian101" depart="276.00">
        <walk edges="MalSt_1_1 TorPl_2_1 TorPl_2_2 TorPl_2_3 HunSt_1_2"/>
    </person>
    <person id="pedestrian102" depart="277.00">
        <walk edges="HunSt_1_1 TorPl_2_3"/>
    </person>
    <person id="pedestrian103" depart="278.00">
        <walk edges="HunSt_1_1 TorPl_2_3 TorPl_2_2 TorPl_2_1 MalSt_2_1"/>
    </person>
    <person id="pedestrian104" depart="279.00">
        <walk edges="TorPl_2_3 TorPl_2_2 TorPl_1_4 BynPl_1_1 BynPl_1_2 BynPl_1_3"/>
    </person>
    <person id="pedestrian105" depart="279.00">
        <walk edges="MalPl_1_1 BynPl_1_1 BynPl_2_2 BynPl_2_1 GorSq_2_2"/>
    </person>
    <person id="pedestrian106" depart="289.00">
        <walk edges="CheMe_2_1 TorPl_1_3 TorPl_1_4 BynPl_1_1 BynPl_2_2 BynPl_2_1"/>
    </person>
    <person id="pedestrian107" depart="292.00">
        <walk edges="TorPl_1_3 TorPl_1_4 BynPl_1_1 BynPl_1_2 BynPl_1_3 GorSq_1_1"/>
    </person>
    <person id="pedestrian108" depart="292.00">
        <walk edges="TorPl_1_2"/>
    </person>
    <person id="pedestrian109" depart="292.00">
        <walk edges="BynPl_2_2 BynPl_2_3 MalSt_1_1"/>
    </person>
    <person id="pedestrian110" depart="297.00">
        <walk edges="MalSt_2_1 TorPl_2_1"/>
    </person>
    <person id="pedestrian111" depart="299.00">
        <walk edges="TorPl_2_4 TorPl_1_2 TorPl_1_3 TorPl_1_4 BynPl_1_1 BynPl_1_2 BynPl_1_3 GorSq_1_1"/>
    </person>
    <person id="pedestrian112" depart="299.00">
        <walk edges="GorSq_1_1 GorSq_2_3"/>
    </person>
    <person id="pedestrian113" depart="311.00">
        <walk edges="GowSt_2_1 GowSt_2_2"/>
    </person>
    <person id="pedestrian114" depart="312.00">
        <walk edges="RidGa_1_1"/>
    </person>
    <person id="pedestrian115" depart="313.00">
        <walk edges="RidGa_2_1 TorPl_2_2 TorPl_1_4 BynPl_1_1 BynPl_1_2 BynPl_1_3 GorSq_1_2 GorSq_1_3"/>
    </person>
    <person id="pedestrian116" depart="317.00">
        <walk edges="HunSt_1_1 TorPl_1_2 TorPl_1_3 TorPl_1_4 BynPl_1_1 BynPl_1_2 BynPl_1_3 GorSq_1_2 GorSq_1_3"/>
    </person>
    <person id="pedestrian117" depart="320.00">
        <walk edges="GorSq_1_1 GorSq_1_2 GorSq_1_3"/>
    </person>
    <person id="pedestrian118" depart="320.00">
        <walk edges="TorPl_1_1 TorPl_1_2 TorPl_1_3 TorPl_1_4 MalPl_1_1"/>
    </person>
    <person id="pedestrian119" depart="323.00">
        <walk edges="TorPl_1_4 TorPl_2_2"/>
    </person>
    <person id="pedestrian120" depart="324.00">
        <walk edges="TorPl_2_2 GowSt_2_1"/>
    </person>
    <person id="pedestrian121" depart="324.00">
        <walk edges="BynPl_2_2 BynPl_2_3 TorPl_2_1 TorPl_2_2 TorPl_2_3 HunSt_2_1"/>
    </person>
    <person id="pedestrian122" depart="325.00">
        <walk edges="CheMe_1_1 TorPl_1_2 TorPl_2_4"/>
    </person>
    <person id="pedestrian123" depart="328.00">
        <walk edges="BynPl_2_2 BynPl_2_3 TorPl_2_1 TorPl_2_2 RidGa_2_1"/>
    </person>
    <person id="pedestrian124" depart="329.00">
        <walk edges="GowSt_2_1 TorPl_1_3 CheMe_1_1"/>
    </person>
    <person id="pedestrian125" depart="330.00">
        <walk edges="CheMe_1_1 TorPl_1_3 TorPl_1_4 BynPl_1_1"/>
    </person>
    <person id="pedestrian126" depart="332.00">
        <walk edges="BynPl_2_3 BynPl_2_2 BynPl_1_3 GorSq_1_2"/>
    </person>
    <person id="pedestrian127" depart="334.00">
        <walk edges="BynPl_2_2 BynPl_1_1 TorPl_1_4 GowSt_1_1"/>
    </person>
    <person id="pedestrian128" depart="334.00">
        <walk edges="TorPl_2_3 TorPl_2_2 TorPl_1_4 MalPl_2_1"/>
    </person>
    <person id="pedestrian129" depart="338.00">
        <walk edges="TorPl_2_3 HunSt_2_1"/>
    </person>
    <person id="pedestrian130" depart="339.00">
        <walk edges="GowSt_1_2 TorPl_2_2 TorPl_2_3"/>
    </person>
    <person id="pedestrian131" depart="340.00">
        <walk edges="GorSq_1_1 BynPl_1_3 BynPl_1_2 BynPl_1_1 TorPl_1_4 TorPl_1_3 TorPl_1_2"/>
    </person>
    <person id="pedestrian132" depart="341.00">
        <walk edges="TorPl_1_3 GowSt_2_2"/>
    </person>
    <person id="pedestrian133" depart="346.00">
        <walk edges="GowSt_1_1 GowSt_1_2"/>
    </person>
    <person id="pedestrian134" depart="347.00">
        <walk edges="CheMe_2_1 TorPl_1_3 TorPl_1_4 BynPl_2_3"/>
    </person>
    <person id="pedestrian135" depart="350.00">
        <walk edges="TorPl_2_4 TorPl_2_3 TorPl_2_2 TorPl_2_1 BynPl_2_3"/>
    </person>
    <person id="pedestrian136" depart="352.00">
        <walk edges="GowSt_2_2 TorPl_1_4"/>
    </person>
    <person id="pedestrian137" depart="354.00">
        <walk edges="GorSq_1_1 GorSq_2_3"/>
    </person>
    <person id="pedestrian138" depart="355.00">
        <walk edges="HunSt_2_2 TorPl_1_2 TorPl_1_3 TorPl_1_4 BynPl_1_1 BynPl_1_2 BynPl_1_3 GorSq_1_2 GorSq_1_3"/>
    </person>
    <person id="pedestrian139" depart="359.00">
        <walk edges="BynPl_1_1 BynPl_1_2"/>
    </person>
    <person id="pedestrian140" depart="359.00">
        <walk edges="TorPl_1_4 BynPl_1_1 BynPl_1_2 BynPl_1_3 GorSq_1_2 GorSq_1_3"/>
    </person>
    <person id="pedestrian141" depart="360.00">
        <walk edges="HunSt_2_2 TorPl_2_3 RidGa_2_1"/>
    </person>
    <person id="pedestrian142" depart="362.00">
        <walk edges="BynPl_2_1 BynPl_1_3 GorSq_1_1"/>
    </person>
    <person id="pedestrian143" depart="364.00">
        <walk edges="MalPl_1_1 TorPl_1_4 TorPl_2_2 TorPl_2_3"/>
    </person>
    <person id="pedestrian144" depart="365.00">
        <walk edges="GorSq_1_3 GorSq_1_2"/>
    </person>
    <person id="pedestrian145" depart="372.00">
        <walk edges="RidGa_1_1 TorPl_2_2 TorPl_1_4 BynPl_1_1 BynPl_1_2 BynPl_1_3 GorSq_2_3"/>
    </person>
    <person id="pedestrian146" depart="378.00">
        <walk edges="BynPl_1_2 BynPl_1_1 TorPl_1_4 TorPl_2_2"/>
    </person>
    <person id="pedestrian147" depart="384.00">
        <walk edges="TorPl_1_2 TorPl_1_3 GowSt_2_2"/>
    </person>
    <person id="pedestrian148" depart="389.00">
        <walk edges="RidGa_2_1 TorPl_2_2 TorPl_1_4"/>
    </person>
    <person id="pedestrian149" depart="391.00">
        <walk edges="TorPl_2_1 TorPl_2_2 TorPl_2_3 TorPl_2_4"/>
    </person>
    <person id="pedestrian150" depart="392.00">
        <walk edges="GowSt_2_2 TorPl_1_4 BynPl_1_1 BynPl_1_2 BynPl_1_3"/>
    </person>
    <person id="pedestrian151" depart="394.00">
        <walk edges="BynPl_2_2 BynPl_2_3 MalSt_2_1"/>
    </person>
    <person id="pedestrian152" depart="397.00">
        <walk edges="GorSq_2_2 BynPl_2_1 BynPl_2_2 BynPl_1_1 TorPl_1_4"/>
    </person>
    <person id="pedestrian153" depart="399.00">
        <walk edges="GorSq_2_3 BynPl_1_3 BynPl_1_2 BynPl_1_1 TorPl_1_4"/>
    </person>
    <person id="pedestrian154" depart="405.00">
        <walk edges="TorPl_2_3 HunSt_1_2"/>
    </person>
    <person id="pedestrian155" depart="405.00">
        <walk edges="GorSq_1_2 BynPl_1_3 BynPl_1_2 BynPl_1_1 TorPl_1_4 GowSt_1_2"/>
    </person>
    <person id="pedestrian156" depart="408.00">
        <walk edges="GorSq_1_3 GorSq_2_1"/>
    </person>
    <person id="pedestrian157" depart="411.00">
        <walk edges="TorPl_1_4 GowSt_2_1"/>
    </person>
    <person id="pedestrian158" depart="412.00">
        <walk edges="TorPl_2_4 HunSt_2_1"/>
    </person>
    <person id="pedestrian159" depart="417.00">
        <walk edges="BynPl_1_3 BynPl_1_2 BynPl_1_1 TorPl_1_4 TorPl_2_2"/>
    </person>
    <person id="pedestrian160" depart="417.00">
        <walk edges="TorPl_1_4 BynPl_1_1 BynPl_2_2 BynPl_2_1"/>
    </person>
    <person id="pedestrian161" depart="418.00">
        <walk edges="GorSq_1_3 GorSq_2_2"/>
    </person>
    <person id="pedestrian162" depart="420.00">
        <walk edges="GorSq_1_2 GorSq_2_1"/>
    </person>
    <person id="pedestrian163" depart="425.00">
        <walk edges="BynPl_1_1 TorPl_1_4 TorPl_2_2 TorPl_2_3"/>
    </person>
    <person id="pedestrian164" depart="426.00">
        <walk edges="TorPl_1_3 TorPl_1_4 MalPl_1_1"/>
    </person>
    <person id="pedestrian165" depart="427.00">
        <walk edges="TorPl_1_3 CheMe_1_1"/>
    </person>
    <person id="pedestrian166" depart="427.00">
        <walk edges="MalPl_1_1 TorPl_2_1"/>
    </person>
    <person id="pedestrian167" depart="430.00">
        <walk edges="MalSt_1_1 TorPl_1_4 TorPl_1_3 TorPl_1_2 HunSt_2_2"/>
    </person>
    <person id="pedestrian168" depart="433.00">
        <walk edges="MalSt_1_1 TorPl_2_1 TorPl_2_2 TorPl_2_3 HunSt_2_1"/>
    </person>
    <person id="pedestrian169" depart="435.00">
        <walk edges="GowSt_1_1 TorPl_2_2 RidGa_1_1"/>
    </person>
    <person id="pedestrian170" depart="436.00">
        <walk edges="GorSq_1_3 GorSq_1_2 BynPl_1_3 BynPl_2_2"/>
    </person>
    <person id="pedestrian171" depart="438.00">
        <walk edges="MalPl_1_1 TorPl_1_4 TorPl_1_3 TorPl_1_2 TorPl_2_4"/>
    </person>
    <person id="pedestrian172" depart="438.00">
        <walk edges="GorSq_1_2"/>
    </person>
    <person id="pedestrian173" depart="442.00">
        <walk edges="HunSt_2_2 TorPl_2_3 RidGa_1_1"/>
    </person>
    <person id="pedestrian174" depart="443.00">
        <walk edges="TorPl_2_2 TorPl_1_4 MalPl_1_1"/>
    </person>
    <person id="pedestrian175" depart="443.00">
        <walk edges="HunSt_1_2 TorPl_2_3 TorPl_2_2 TorPl_1_4 BynPl_1_1 BynPl_1_2 BynPl_1_3 GorSq_1_2"/>
    </person>
    <person id="pedestrian176" depart="444.00">
        <walk edges="BynPl_2_3 TorPl_1_4 TorPl_1_3 TorPl_1_2 HunSt_1_1"/>
    </person>
    <person id="pedestrian177" depart="446.00">
        <walk edges="BynPl_2_2 BynPl_2_3 TorPl_2_1"/>
    </person>
    <person id="pedestrian178" depart="446.00">
        <walk edges="GowSt_2_1 TorPl_2_2 RidGa_1_1"/>
    </person>
    <person id="pedestrian179" depart="448.00">
        <walk edges="GorSq_1_2 BynPl_1_3 BynPl_1_2 BynPl_1_1 TorPl_1_4 GowSt_2_1"/>
    </person>
    <person id="pedestrian180" depart="450.00">
        <walk edges="TorPl_2_1 TorPl_1_3"/>
    </person>
    <person id="pedestrian181" depart="451.00">
        <walk edges="MalSt_1_1 TorPl_1_4 TorPl_1_3 CheMe_1_1"/>
    </person>
    <person id="pedestrian182" depart="451.00">
        <walk edges="GorSq_1_2 BynPl_1_3 BynPl_1_2 BynPl_1_1 TorPl_1_4 GowSt_2_1"/>
    </person>
    <person id="pedestrian183" depart="452.00">
        <walk edges="BynPl_1_1 TorPl_1_4 TorPl_2_2 TorPl_2_3 HunSt_1_2"/>
    </person>
    <person id="pedestrian184" depart="453.00">
        <walk edges="GowSt_2_2 TorPl_1_4"/>
    </person>
    <person id="pedestrian185" depart="456.00">
        <walk edges="BynPl_2_3 TorPl_1_4 TorPl_1_3 CheMe_2_1"/>
    </person>
    <person id="pedestrian186" depart="458.00">
        <walk edges="BynPl_1_1 BynPl_1_2 BynPl_1_3 GorSq_1_2 GorSq_1_3"/>
    </person>
    <person id="pedestrian187" depart="459.00">
        <walk edges="TorPl_2_2 TorPl_1_4 MalPl_2_1"/>
    </person>
    <person id="pedestrian188" depart="460.00">
        <walk edges="GowSt_1_1 TorPl_2_2 RidGa_1_1"/>
    </person>
    <person id="pedestrian189" depart="463.00">
        <walk edges="MalPl_1_1 TorPl_1_4 TorPl_1_3 CheMe_2_1"/>
    </person>
    <person id="pedestrian190" depart="465.00">
        <walk edges="TorPl_2_1 MalPl_2_1"/>
    </person>
    <person id="pedestrian191" depart="469.00">
        <walk edges="TorPl_1_4 GowSt_2_1"/>
    </person>
    <person id="pedestrian192" depart="469.00">
        <walk edges="GorSq_1_1 BynPl_1_3 BynPl_1_2 BynPl_1_1 TorPl_1_4 TorPl_1_3 TorPl_1_2 HunSt_2_2"/>
    </person>
    <person id="pedestrian193" depart="469.00">
        <walk edges="TorPl_2_4 TorPl_2_3 TorPl_2_2 TorPl_2_1 BynPl_2_3"/>
    </person>
    <person id="pedestrian194" depart="469.00">
        <walk edges="TorPl_1_3 TorPl_1_4"/>
    </person>
    <person id="pedestrian195" depart="476.00">
        <walk edges="MalPl_2_1 MalSt_1_1"/>
    </person>
    <person id="pedestrian196" depart="476.00">
        <walk edges="GorSq_2_2 BynPl_2_1 BynPl_2_2 BynPl_2_3 TorPl_2_1"/>
    </person>
    <person id="pedestrian197" depart="481.00">
        <walk edges="MalSt_2_1 BynPl_2_3 BynPl_2_2 BynPl_2_1 GorSq_2_2 GorSq_2_1"/>
    </person>
    <person id="pedestrian198" depart="483.00">
        <walk edges="TorPl_2_2 TorPl_1_4 BynPl_1_1 BynPl_1_2 BynPl_1_3 GorSq_1_2 GorSq_1_3"/>
    </person>
    <person id="pedestrian199" depart="485.00">
        <walk edges="HunSt_1_1 TorPl_1_2 TorPl_1_3 TorPl_1_4 MalSt_1_1"/>
    </person>
    <person id="pedestrian200" depart="486.00">
        <walk edges="GorSq_2_2 BynPl_2_1"/>
    </person>
    <person id="pedestrian201" depart="494.00">
        <walk edges="HunSt_1_1 TorPl_2_3 RidGa_2_1"/>
    </person>
    <person id="pedestrian202" depart="495.00">
        <walk edges="HunSt_2_2 TorPl_2_3"/>
    </person>
    <person id="pedestrian203" depart="497.00">
        <walk edges="GowSt_1_2 TorPl_1_4 MalPl_1_1"/>
    </person>
    <person id="pedestrian204" depart="497.00">
        <walk edges="RidGa_2_1 TorPl_2_2 GowSt_1_1"/>
    </person>
    <person id="pedestrian205" depart="498.00">
        <walk edges="MalPl_1_1 BynPl_1_1 BynPl_1_2 BynPl_1_3 GorSq_1_2 GorSq_1_3"/>
    </person>
    <person id="pedestrian206" depart="499.00">
        <walk edges="BynPl_1_3 BynPl_1_2 BynPl_1_1 TorPl_1_4 GowSt_1_1"/>
    </person>
    <person id="pedestrian207" depart="504.00">
        <walk edges="CheMe_1_1 TorPl_1_3 TorPl_2_1 MalSt_2_1"/>
    </person>
    <person id="pedestrian208" depart="504.00">
        <walk edges="HunSt_2_2 TorPl_2_3 TorPl_2_2 TorPl_2_1"/>
    </person>
    <person id="pedestrian209" depart="506.00">
        <walk edges="RidGa_1_1 TorPl_2_3"/>
    </person>
    <person id="pedestrian210" depart="506.00">
        <walk edges="BynPl_2_3 TorPl_2_1 GowSt_1_2"/>
    </person>
    <person id="pedestrian211" depart="509.00">
        <walk edges="HunSt_1_2 TorPl_2_3 TorPl_2_2 TorPl_1_4"/>
    </person>
    <person id="pedestrian212" depart="510.00">
        <walk edges="HunSt_2_2 TorPl_1_2 TorPl_1_3 TorPl_1_4 BynPl_1_1 BynPl_2_2 BynPl_2_1"/>
    </person>
    <person id="pedestrian213" depart="510.00">
        <walk edges="GorSq_2_2 GorSq_1_2 GorSq_1_1"/>
    </person>
    <person id="pedestrian214" depart="510.00">
        <walk edges="MalPl_2_1 TorPl_1_4 TorPl_1_3"/>
    </person>
    <person id="pedestrian215" depart="513.00">
        <walk edges="GowSt_2_2 GowSt_2_1"/>
    </person>
    <person id="pedestrian216" depart="516.00">
        <walk edges="BynPl_1_1 TorPl_1_4 TorPl_2_2 RidGa_1_1"/>
    </person>
    <person id="pedestrian217" depart="516.00">
        <walk edges="TorPl_1_3 TorPl_1_4 BynPl_1_1 BynPl_2_2 BynPl_2_1"/>
    </person>
    <person id="pedestrian218" depart="524.00">
        <walk edges="TorPl_2_3 RidGa_2_1"/>
    </person>
    <person id="pedestrian219" depart="525.00">
        <walk edges="RidGa_1_1 TorPl_2_3 TorPl_1_1"/>
    </person>
    <person id="pedestrian220" depart="528.00">
        <walk edges="HunSt_1_1 TorPl_2_3 TorPl_2_2 TorPl_2_1"/>
    </person>
    <person id="pedestrian221" depart="532.00">
        <walk edges="BynPl_1_1 TorPl_1_4 GowSt_1_2"/>
    </person>
    <person id="pedestrian222" depart="533.00">
        <walk edges="GorSq_2_1 GorSq_2_2 BynPl_2_1 BynPl_2_2 BynPl_1_1 TorPl_1_4 TorPl_1_3 TorPl_1_2 HunSt_2_2"/>
    </person>
    <person id="pedestrian223" depart="533.00">
        <walk edges="HunSt_2_1 TorPl_1_2 TorPl_1_3 TorPl_1_4 MalPl_2_1"/>
    </person>
    <person id="pedestrian224" depart="535.00">
        <walk edges="GowSt_1_2 TorPl_1_4 BynPl_1_1 BynPl_1_2 BynPl_1_3"/>
    </person>
    <person id="pedestrian225" depart="538.00">
        <walk edges="BynPl_2_1 BynPl_2_2 BynPl_1_1 TorPl_1_4 GowSt_2_2"/>
    </person>
    <person id="pedestrian226" depart="538.00">
        <walk edges="MalPl_1_1 TorPl_1_4 TorPl_1_3 CheMe_2_1"/>
    </person>
    <person id="pedestrian227" depart="540.00">
        <walk edges="BynPl_2_3 BynPl_2_2 BynPl_2_1 GorSq_2_2"/>
    </person>