<?xml version="1.0" encoding="UTF-8"?>

<!-- generated on 2025-11-24 09:30:01.011109 by randomTrips.py v1_24_0+0000-b72eb3fabc8
<configuration>
    <net-file value="../networks/demo/main.net.xml"/>
    <output-trip-file value="../routes/demo/pedestrian.trips.xml"/>
    <route-file value="../routes/demo/pedestrian.rou.xml"/>
    <pedestrians value="True"/>
    <prefix value="pedestrian"/>
    <seed value="140"/>
    <period value="4.0"/>
    <binomial value="100"/>
</configuration>
-->

<routes xmlns:xsi="http://www.w3.org/2001/XMLSchema-instance" xsi:noNamespaceSchemaLocation="http://sumo.dlr.de/xsd/routes_file.xsd">
    <person id="pedestrian0" depart="0.00">
        <walk from="MalPl_2_1" to="MalSt_2_1"/>
    </person>
    <person id="pedestrian1" depart="7.00">
        <walk from="TorPl_1_5" to="BynPl_2_1"/>
    </person>
    <person id="pedestrian2" depart="9.00">
        <walk from="TorPl_2_1" to="TorPl_2_3"/>
    </person>
    <person id="pedestrian3" depart="14.00">
        <walk from="GowSt_1_1" to="GorSq_1_2"/>
    </person>
    <person id="pedestrian4" depart="16.00">
        <walk from="CheMe_1_1" to="TorPl_2_1"/>
    </person>
    <person id="pedestrian5" depart="21.00">
        <walk from="TorPl_1_5" to="GorSq_1_2"/>
    </person>
    <person id="pedestrian6" depart="24.00">
        <walk from="RidGa_1_1" to="TorPl_2_1"/>
    </person>
    <person id="pedestrian7" depart="25.00">
        <walk from="HunSt_1_1" to="TorPl_2_3"/>
    </person>
    <person id="pedestrian8" depart="25.00">
        <walk from="CheMe_1_1" to="GowSt_1_1"/>
    </person>
    <person id="pedestrian9" depart="28.00">
        <walk from="GorSq_2_3" to="GowSt_1_2"/>
    </person>
    <person id="pedestrian10" depart="31.00">
        <walk from="CheMe_2_1" to="MalSt_2_1"/>
    </person>
    <person id="pedestrian11" depart="45.00">
        <walk from="CheMe_2_1" to="HunSt_1_1"/>
    </person>
    <person id="pedestrian12" depart="45.00">
        <walk from="TorPl_2_5" to="TorPl_1_2"/>
    </person>
    <person id="pedestrian13" depart="47.00">
        <walk from="RidGa_1_1" to="MalPl_2_1"/>
    </person>
    <person id="pedestrian14" depart="53.00">
        <walk from="MalPl_1_1" to="TorPl_2_1"/>
    </person>
    <person id="pedestrian15" depart="56.00">
        <walk from="GorSq_1_1" to="CheMe_1_1"/>
    </person>
    <person id="pedestrian16" depart="61.00">
        <walk from="GowSt_2_3" to="MalSt_1_1"/>
    </person>
    <person id="pedestrian17" depart="70.00">
        <walk from="GorSq_1_3" to="GowSt_1_3"/>
    </person>
    <person id="pedestrian18" depart="87.00">
        <walk from="BynPl_2_1" to="MalSt_1_1"/>
    </person>
    <person id="pedestrian19" depart="88.00">
        <walk from="BynPl_2_1" to="MalSt_2_1"/>
    </person>
    <person id="pedestrian20" depart="97.00">
        <walk from="GorSq_2_2" to="MalSt_2_1"/>
    </person>
    <person id="pedestrian21" depart="111.00">
        <walk from="MalSt_1_1" to="TorPl_1_3"/>
    </person>
    <person id="pedestrian22" depart="115.00">
        <walk from="CheMe_2_1" to="MalSt_2_1"/>
    </person>
    <person id="pedestrian23" depart="117.00">
        <walk from="HunSt_2_1" to="CheMe_2_1"/>
    </person>
    <person id="pedestrian24" depart="137.00">
        <walk from="TorPl_1_4" to="HunSt_2_1"/>
    </person>
    <person id="pedestrian25" depart="141.00">
        <walk from="BynPl_2_3" to="BynPl_2_1"/>
    </person>
    <person id="pedestrian26" depart="144.00">
        <walk from="BynPl_1_3" to="TorPl_2_2"/>
    </person>
    <person id="pedestrian27" depart="150.00">
        <walk from="MalPl_1_1" to="TorPl_1_5"/>
    </person>
    <person id="pedestrian28" depart="152.00">
        <walk from="BynPl_1_1" to="RidGa_2_1"/>
    </person>
    <person id="pedestrian29" depart="155.00">
        <walk from="GowSt_1_1" to="HunSt_2_2"/>
    </person>
    <person id="pedestrian30" depart="161.00">
        <walk from="GorSq_1_3" to="BynPl_1_3"/>
    </person>
    <person id="pedestrian31" depart="162.00">
        <walk from="BynPl_1_3" to="GowSt_2_3"/>
    </person>
    <person id="pedestrian32" depart="170.00">
        <walk from="GorSq_1_1" to="HunSt_2_2"/>
    </person>
    <person id="pedestrian33" depart="172.00">
        <walk from="BynPl_2_1" to="TorPl_1_1"/>
    </person>
    <person id="pedestrian34" depart="173.00">
        <walk from="GowSt_2_2" to="TorPl_1_3"/>
    </person>
    <person id="pedestrian35" depart="178.00">
        <walk from="GowSt_1_2" to="GowSt_1_2"/>
    </person>
    <person id="pedestrian36" depart="182.00">
        <walk from="HunSt_1_2" to="HunSt_1_1"/>
    </person>
    <person id="pedestrian37" depart="190.00">
        <walk from="HunSt_1_2" to="BynPl_2_3"/>
    </person>
    <person id="pedestrian38" depart="198.00">
        <walk from="TorPl_2_1" to="BynPl_2_2"/>
    </person>
    <person id="pedestrian39" depart="199.00">
        <walk from="GowSt_1_3" to="GowSt_2_3"/>
    </person>
    <person id="pedestrian40" depart="199.00">
        <walk from="TorPl_1_4" to="HunSt_2_2"/>
    </person>
    <person id="pedestrian41" depart="201.00">
        <walk from="HunSt_2_2" to="TorPl_1_1"/>
    </person>
    <person id="pedestrian42" depart="201.00">
        <walk from="CheMe_1_1" to="MalSt_1_1"/>
    </person>
    <person id="pedestrian43" depart="205.00">
        <walk from="HunSt_1_2" to="RidGa_2_1"/>
    </person>
    <person id="pedestrian44" depart="210.00">
        <walk from="GorSq_1_3" to="RidGa_2_1"/>
    </person>
    <person id="pedestrian45" depart="215.00">
        <walk from="GorSq_2_1" to="TorPl_2_5"/>
    </person>
    <person id="pedestrian46" depart="217.00">
        <walk from="BynPl_2_2" to="TorPl_2_3"/>
    </person>
    <person id="pedestrian47" depart="218.00">
        <walk from="GowSt_1_2" to="BynPl_1_3"/>
    </person>
    <person id="pedestrian48" depart="220.00">
        <walk from="MalSt_1_1" to="HunSt_2_1"/>
    </person>
    <person id="pedestrian49" depart="221.00">
        <walk from="CheMe_2_1" to="HunSt_2_1"/>
    </person>
    <person id="pedestrian50" depart="224.00">
        <walk from="TorPl_1_1" to="MalSt_2_1"/>
    </person>
    <person id="pedestrian51" depart="230.00">
        <walk from="BynPl_2_1" to="GowSt_2_2"/>
    </person>
    <person id="pedestrian52" depart="232.00">
        <walk from="GorSq_1_2" to="HunSt_1_1"/>
    </person>
    <person id="pedestrian53" depart="237.00">
        <walk from="CheMe_2_1" to="CheMe_2_1"/>
    </person>
    <person id="pedestrian54" depart="243.00">
        <walk from="BynPl_2_2" to="BynPl_1_2"/>
    </person>
    <person id="pedestrian55" depart="245.00">
        <walk from="TorPl_2_2" to="HunSt_1_1"/>
    </person>
    <person id="pedestrian56" depart="258.00">
        <walk from="BynPl_1_1" to="GowSt_1_2"/>
    </person>
    <person id="pedestrian57" depart="259.00">
        <walk from="RidGa_2_1" to="TorPl_1_4"/>
    </person>
    <person id="pedestrian58" depart="259.00">
        <walk from="RidGa_1_1" to="GowSt_1_2"/>
    </person>
    <person id="pedestrian59" depart="267.00">
        <walk from="TorPl_1_1" to="TorPl_2_5"/>
    </person>
    <person id="pedestrian60" depart="268.00">
        <walk from="GorSq_1_3" to="BynPl_2_3"/>
    </person>
    <person id="pedestrian61" depart="271.00">
        <walk from="MalSt_1_1" to="TorPl_1_4"/>
    </person>
    <person id="pedestrian62" depart="272.00">
        <walk from="HunSt_2_2" to="TorPl_2_5"/>
    </person>
    <person id="pedestrian63" depart="273.00">
        <walk from="GowSt_2_3" to="RidGa_2_1"/>
    </person>
    <person id="pedestrian64" depart="274.00">
        <walk from="HunSt_1_1" to="GowSt_2_3"/>
    </person>
    <person id="pedestrian65" depart="286.00">
        <walk from="TorPl_2_2" to="TorPl_1_4"/>
    </person>
    <person id="pedestrian66" depart="292.00">
        <walk from="GorSq_1_3" to="BynPl_2_1"/>
    </person>
    <person id="pedestrian67" depart="296.00">
        <walk from="GorSq_1_3" to="BynPl_1_2"/>
    </person>
    <person id="pedestrian68" depart="297.00">
        <walk from="TorPl_2_5" to="MalPl_2_1"/>
    </person>
    <person id="pedestrian69" depart="305.00">
        <walk from="GorSq_2_2" to="MalPl_1_1"/>
    </person>
    <person id="pedestrian70" depart="313.00">
        <walk from="MalSt_2_1" to="TorPl_2_5"/>
    </person>
    <person id="pedestrian71" depart="320.00">
        <walk from="GorSq_2_1" to="GowSt_1_2"/>
    </person>
    <person id="pedestrian72" depart="322.00">
        <walk from="GorSq_1_2" to="TorPl_2_4"/>
    </person>
    <person id="pedestrian73" depart="324.00">
        <walk from="RidGa_1_1" to="BynPl_1_2"/>
    </person>
    <person id="pedestrian74" depart="324.00">
        <walk from="GowSt_1_2" to="BynPl_2_2"/>
    </person>
    <person id="pedestrian75" depart="327.00">
        <walk from="TorPl_1_2" to="BynPl_2_3"/>
    </person>
    <person id="pedestrian76" depart="332.00">
        <walk from="GowSt_1_2" to="TorPl_2_4"/>
    </person>
    <person id="pedestrian77" depart="336.00">
        <walk from="TorPl_1_4" to="MalSt_1_1"/>
    </person>
    <person id="pedestrian78" depart="344.00">
        <walk from="GowSt_1_1" to="HunSt_1_2"/>
    </person>
    <person id="pedestrian79" depart="350.00">
        <walk from="BynPl_2_3" to="HunSt_1_1"/>
    </person>
    <person id="pedestrian80" depart="350.00">
        <walk from="GowSt_1_3" to="GowSt_2_3"/>
    </person>
    <person id="pedestrian81" depart="358.00">
        <walk from="BynPl_1_3" to="TorPl_1_2"/>
    </person>
    <person id="pedestrian82" depart="358.00">
        <walk from="BynPl_1_2" to="BynPl_2_3"/>
    </person>
    <person id="pedestrian83" depart="361.00">
        <walk from="CheMe_2_1" to="GorSq_2_1"/>
    </person>
    <person id="pedestrian84" depart="363.00">
        <walk from="GorSq_2_3" to="GorSq_2_3"/>
    </person>
    <person id="pedestrian85" depart="363.00">
        <walk from="TorPl_1_4" to="GowSt_1_2"/>
    </person>
    <person id="pedestrian86" depart="366.00">
        <walk from="GorSq_1_1" to="GorSq_2_3"/>
    </person>
    <person id="pedestrian87" depart="367.00">
        <walk from="MalPl_2_1" to="CheMe_2_1"/>
    </person>
    <person id="pedestrian88" depart="367.00">
        <walk from="RidGa_2_1" to="BynPl_2_3"/>
    </person>
    <person id="pedestrian89" depart="369.00">
        <walk from="GorSq_2_1" to="GowSt_2_2"/>
    </person>
    <person id="pedestrian90" depart="370.00">
        <walk from="GowSt_1_2" to="BynPl_2_3"/>
    </person>
    <person id="pedestrian91" depart="372.00">
        <walk from="MalSt_2_1" to="TorPl_1_4"/>
    </person>
    <person id="pedestrian92" depart="372.00">
        <walk from="TorPl_1_5" to="MalPl_1_1"/>
    </person>
    <person id="pedestrian93" depart="381.00">
        <walk from="GowSt_2_2" to="BynPl_2_2"/>
    </person>
    <person id="pedestrian94" depart="384.00">
        <walk from="MalPl_1_1" to="TorPl_1_2"/>
    </person>
    <person id="pedestrian95" depart="398.00">
        <walk from="GorSq_1_2" to="GowSt_1_3"/>
    </person>
    <person id="pedestrian96" depart="404.00">
        <walk from="TorPl_1_2" to="HunSt_1_1"/>
    </person>
    <person id="pedestrian97" depart="405.00">
        <walk from="GowSt_2_1" to="HunSt_2_1"/>
    </person>
    <person id="pedestrian98" depart="409.00">
        <walk from="GowSt_2_3" to="HunSt_2_1"/>
    </person>
    <person id="pedestrian99" depart="410.00">
        <walk from="TorPl_2_5" to="MalSt_2_1"/>
    </person>
    <person id="pedestrian100" depart="412.00">
        <walk from="RidGa_2_1" to="TorPl_2_5"/>
    </person>
    <person id="pedestrian101" depart="414.00">
        <walk from="GorSq_2_1" to="MalSt_1_1"/>
    </person>
    <person id="pedestrian102" depart="422.00">
        <walk from="GorSq_2_3" to="HunSt_1_2"/>
    </person>
    <person id="pedestrian103" depart="431.00">
        <walk from="CheMe_2_1" to="TorPl_1_5"/>
    </person>
    <person id="pedestrian104" depart="432.00">
        <walk from="GowSt_1_3" to="GorSq_1_1"/>
    </person>
    <person id="pedestrian105" depart="432.00">
        <walk from="MalPl_2_1" to="TorPl_2_4"/>
    </person>
    <person id="pedestrian106" depart="446.00">
        <walk from="TorPl_2_5" to="CheMe_2_1"/>
    </person>
    <person id="pedestrian107" depart="446.00">
        <walk from="MalPl_2_1" to="RidGa_1_1"/>
    </person>
    <person id="pedestrian108" depart="451.00">
        <walk from="GowSt_2_2" to="RidGa_1_1"/>
    </person>
    <person id="pedestrian109" depart="452.00">
        <walk from="GowSt_2_1" to="TorPl_1_1"/>
    </person>
    <person id="pedestrian110" depart="459.00">
        <walk from="TorPl_1_2" to="CheMe_2_1"/>
    </person>
    <person id="pedestrian111" depart="462.00">
        <walk from="TorPl_2_2" to="HunSt_2_2"/>
    </person>
    <person id="pedestrian112" depart="462.00">
        <walk from="GorSq_1_3" to="BynPl_1_3"/>
    </person>
    <person id="pedestrian113" depart="473.00">
        <walk from="TorPl_2_4" to="TorPl_1_4"/>
    </person>
    <person id="pedestrian114" depart="474.00">
        <walk from="TorPl_2_3" to="TorPl_2_5"/>
    </person>
    <person id="pedestrian115" depart="478.00">
        <walk from="RidGa_2_1" to="GowSt_2_3"/>
    </person>
    <person id="pedestrian116" depart="478.00">
        <walk from="GorSq_2_3" to="GowSt_1_1"/>
    </person>
    <person id="pedestrian117" depart="480.00">
        <walk from="TorPl_1_4" to="TorPl_1_5"/>
    </person>
    <person id="pedestrian118" depart="481.00">
        <walk from="TorPl_1_5" to="TorPl_2_2"/>
    </person>
    <person id="pedestrian119" depart="484.00">
        <walk from="TorPl_1_3" to="HunSt_1_2"/>
    </person>
    <person id="pedestrian120" depart="490.00">
        <walk from="BynPl_2_2" to="TorPl_1_2"/>
    </person>
    <person id="pedestrian121" depart="493.00">
        <walk from="GorSq_1_2" to="GorSq_2_2"/>
    </person>
    <person id="pedestrian122" depart="494.00">
        <walk from="HunSt_2_1" to="TorPl_1_2"/>
    </person>
    <person id="pedestrian123" depart="494.00">
        <walk from="TorPl_1_3" to="TorPl_2_4"/>
    </person>
    <person id="pedestrian124" depart="496.00">
        <walk from="MalPl_1_1" to="GorSq_2_2"/>
    </person>
    <person id="pedestrian125" depart="497.00">
        <walk from="GowSt_1_2" to="GorSq_1_3"/>
    </person>
    <person id="pedestrian126" depart="508.00">
        <walk from="GorSq_2_3" to="GowSt_2_3"/>
    </person>
    <person id="pedestrian127" depart="510.00">
        <walk from="TorPl_1_4" to="TorPl_1_1"/>
    </person>
    <person id="pedestrian128" depart="511.00">
        <walk from="GowSt_2_1" to="BynPl_2_1"/>
    </person>
    <person id="pedestrian129" depart="513.00">
        <walk from="TorPl_1_3" to="GowSt_1_1"/>
    </person>
    <person id="pedestrian130" depart="514.00">
        <walk from="RidGa_1_1" to="RidGa_1_1"/>
    </person>
    <person id="pedestrian131" depart="518.00">
        <walk from="BynPl_2_3" to="GowSt_1_3"/>
    </person>
    <person id="pedestrian132" depart="521.00">
        <walk from="TorPl_1_3" to="GorSq_2_2"/>
    </person>
    <person id="pedestrian133" depart="524.00">
        <walk from="CheMe_1_1" to="MalSt_2_1"/>
    </person>
    <person id="pedestrian134" depart="530.00">
        <walk from="GowSt_1_3" to="GorSq_1_2"/>
    </person>
    <person id="pedestrian135" depart="537.00">
        <walk from="MalPl_1_1" to="TorPl_2_3"/>
    </person>
    <person id="pedestrian136" depart="539.00">
        <walk from="GorSq_2_3" to="GorSq_1_3"/>
    </person>
    <person id="pedestrian137" depart="539.00">
        <walk from="RidGa_2_1" to="MalPl_1_1"/>
    </person>
    <person id="pedestrian138" depart="540.00">
        <walk from="TorPl_1_3" to="GorSq_1_2"/>
    </person>
    <person id="pedestrian139" depart="540.00">
        <walk from="MalSt_2_1" to="TorPl_1_3"/>
    </person>
    <person id="pedestrian140" depart="544.00">
        <walk from="GorSq_2_2" to="RidGa_1_1"/>
    </person>
    <person id="pedestrian141" depart="551.00">
        <walk from="TorPl_1_1" to="MalSt_2_1"/>
    </person>
    <person id="pedestrian142" depart="557.00">
        <walk from="BynPl_1_2" to="MalPl_2_1"/>
    </person>
    <person id="pedestrian143" depart="561.00">
        <walk from="GowSt_2_2" to="GowSt_2_1"/>
    </person>
    <person id="pedestrian144" depart="566.00">
        <walk from="GowSt_2_2" to="BynPl_2_1"/>
    </person>
    <person id="pedestrian145" depart="569.00">
        <walk from="TorPl_2_2" to="GowSt_1_1"/>
    </person>
    <person id="pedestrian146" depart="577.00">
        <walk from="TorPl_2_1" to="TorPl_1_2"/>
    </person>
    <person id="pedestrian147" depart="577.00">
        <walk from="CheMe_2_1" to="TorPl_1_4"/>
    </person>
    <person id="pedestrian148" depart="579.00">
        <walk from="BynPl_1_3" to="MalPl_2_1"/>
    </person>
    <person id="pedestrian149" depart="581.00">
        <walk from="GowSt_2_2" to="CheMe_1_1"/>
    </person>
    <person id="pedestrian150" depart="583.00">
        <walk from="TorPl_2_1" to="GorSq_1_3"/>
    </person>
    <person id="pedestrian151" depart="587.00">
        <walk from="MalPl_1_1" to="GowSt_1_2"/>
    </person>
    <person id="pedestrian152" depart="592.00">
        <walk from="BynPl_2_2" to="MalPl_1_1"/>
    </person>
    <person id="pedestrian153" depart="594.00">
        <walk from="GowSt_2_3" to="GowSt_1_3"/>
    </person>
    <person id="pedestrian154" depart="596.00">
        <walk from="TorPl_1_3" to="TorPl_2_3"/>
    </person>
    <person id="pedestrian155" depart="600.00">
        <walk from="MalSt_2_1" to="GorSq_2_3"/>
    </person>
    <person id="pedestrian156" depart="601.00">
        <walk from="TorPl_1_3" to="GorSq_2_3"/>
    </person>
    <person id="pedestrian157" depart="602.00">
        <walk from="GowSt_2_1" to="TorPl_1_2"/>
    </person>
    <person id="pedestrian158" depart="603.00">
        <walk from="MalPl_2_1" to="BynPl_2_2"/>
    </person>
    <person id="pedestrian159" depart="606.00">
        <walk from="GorSq_1_2" to="TorPl_1_1"/>
    </person>
    <person id="pedestrian160" depart="606.00">
        <walk from="TorPl_2_5" to="HunSt_1_2"/>
    </person>
    <person id="pedestrian161" depart="610.00">
        <walk from="GorSq_1_2" to="GorSq_1_2"/>
    </person>
    <person id="pedestrian162" depart="610.00">
        <walk from="TorPl_2_5" to="HunSt_1_2"/>
    </person>
    <person id="pedestrian163" depart="616.00">
        <walk from="GowSt_1_2" to="GowSt_2_2"/>
    </person>
    <person id="pedestrian164" depart="618.00">
        <walk from="GorSq_2_1" to="CheMe_2_1"/>
    </person>
    <person id="pedestrian165" depart="619.00">
        <walk from="GowSt_1_3" to="BynPl_1_3"/>
    </person>
    <person id="pedestrian166" depart="620.00">
        <walk from="GowSt_1_1" to="RidGa_1_1"/>
    </person>
    <person id="pedestrian167" depart="622.00">
        <walk from="MalSt_2_1" to="GorSq_2_3"/>
    </person>
    <person id="pedestrian168" depart="622.00">
        <walk from="TorPl_2_3" to="TorPl_1_5"/>
    </person>
    <person id="pedestrian169" depart="628.00">
        <walk from="HunSt_1_2" to="GowSt_1_3"/>
    </person>
    <person id="pedestrian170" depart="629.00">
        <walk from="RidGa_2_1" to="BynPl_2_2"/>
    </person>
    <person id="pedestrian171" depart="634.00">
        <walk from="TorPl_2_2" to="CheMe_1_1"/>
    </person>
    <person id="pedestrian172" depart="635.00">
        <walk from="GorSq_2_3" to="TorPl_1_1"/>
    </person>
    <person id="pedestrian173" depart="639.00">
        <walk from="BynPl_1_1" to="TorPl_1_3"/>
    </person>
    <person id="pedestrian174" depart="641.00">
        <walk from="TorPl_2_5" to="HunSt_2_1"/>
    </person>
    <person id="pedestrian175" depart="644.00">
        <walk from="RidGa_2_1" to="HunSt_1_2"/>
    </person>
    <person id="pedestrian176" depart="646.00">
        <walk from="CheMe_1_1" to="MalPl_1_1"/>
    </person>
    <person id="pedestrian177" depart="647.00">
        <walk from="GowSt_1_2" to="CheMe_1_1"/>
    </person>
    <person id="pedestrian178" depart="650.00">
        <walk from="GowSt_1_2" to="BynPl_1_2"/>
    </person>
    <person id="pedestrian179" depart="653.00">
        <walk from="MalSt_2_1" to="HunSt_1_1"/>
    </person>
    <person id="pedestrian180" depart="656.00">
        <walk from="BynPl_2_3" to="GowSt_1_2"/>
    </person>
    <person id="pedestrian181" depart="666.00">
        <walk from="MalPl_1_1" to="TorPl_1_5"/>
    </person>
    <person id="pedestrian182" depart="682.00">
        <walk from="TorPl_1_4" to="TorPl_2_4"/>
    </person>
    <person id="pedestrian183" depart="685.00">
        <walk from="CheMe_1_1" to="TorPl_2_5"/>
    </person>
    <person id="pedestrian184" depart="685.00">
        <walk from="GowSt_1_1" to="RidGa_1_1"/>
    </person>
    <person id="pedestrian185" depart="686.00">
        <walk from="BynPl_1_1" to="MalSt_1_1"/>
    </person>
    <person id="pedestrian186" depart="687.00">
        <walk from="GowSt_1_3" to="TorPl_2_3"/>
    </person>
    <person id="pedestrian187" depart="688.00">
        <walk from="BynPl_1_3" to="RidGa_2_1"/>
    </person>
    <person id="pedestrian188" depart="690.00">
        <walk from="BynPl_2_1" to="MalPl_2_1"/>
    </person>
    <person id="pedestrian189" depart="691.00">
        <walk from="TorPl_1_3" to="TorPl_1_5"/>
    </person>
    <person id="pedestrian190" depart="692.00">
        <walk from="HunSt_2_2" to="GowSt_1_2"/>
    </person>
    <person id="pedestrian191" depart="703.00">
        <walk from="BynPl_1_3" to="MalSt_1_1"/>
    </person>
    <person id="pedestrian192" depart="710.00">
        <walk from="RidGa_1_1" to="TorPl_1_1"/>
    </person>
    <person id="pedestrian193" depart="712.00">
        <walk from="CheMe_2_1" to="CheMe_1_1"/>
    </person>
    <person id="pedestrian194" depart="713.00">
        <walk from="MalPl_1_1" to="MalPl_2_1"/>
    </person>
    <person id="pedestrian195" depart="713.00">
        <walk from="BynPl_2_1" to="TorPl_1_4"/>
    </person>
    <person id="pedestrian196" depart="716.00">
        <walk from="GorSq_1_2" to="GorSq_1_1"/>
    </person>
    <person id="pedestrian197" depart="716.00">
        <walk from="GowSt_1_2" to="HunSt_1_2"/>
    </person>
    <person id="pedestrian198" depart="718.00">
        <walk from="MalPl_2_1" to="CheMe_2_1"/>
    </person>
    <person id="pedestrian199" depart="723.00">
        <walk from="CheMe_1_1" to="RidGa_1_1"/>
    </person>
    <person id="pedestrian200" depart="725.00">
        <walk from="TorPl_2_1" to="TorPl_1_5"/>
    </person>
    <person id="pedestrian201" depart="728.00">
        <walk from="GorSq_1_1" to="CheMe_1_1"/>
    </person>
    <person id="pedestrian202" depart="731.00">
        <walk from="BynPl_2_1" to="TorPl_1_5"/>
    </person>
    <person id="pedestrian203" depart="737.00">
        <walk from="MalSt_1_1" to="TorPl_2_3"/>
    </person>
    <person id="pedestrian204" depart="739.00">
        <walk from="GorSq_2_3" to="MalSt_2_1"/>
    </person>
    <person id="pedestrian205" depart="742.00">
        <walk from="HunSt_2_2" to="TorPl_1_3"/>
    </person>
    <person id="pedestrian206" depart="745.00">
        <walk from="MalPl_1_1" to="GorSq_1_2"/>
    </person>
    <person id="pedestrian207" depart="746.00">
        <walk from="CheMe_1_1" to="BynPl_1_1"/>
    </person>
    <person id="pedestrian208" depart="755.00">
        <walk from="TorPl_2_2" to="GorSq_1_1"/>
    </person>
    <person id="pedestrian209" depart="762.00">
        <walk from="GorSq_2_3" to="GorSq_1_3"/>
    </person>
    <person id="pedestrian210" depart="763.00">
        <walk from="HunSt_2_1" to="GorSq_1_3"/>
    </person>
    <person id="pedestrian211" depart="767.00">
        <walk from="BynPl_1_3" to="TorPl_1_3"/>
    </person>
    <person id="pedestrian212" depart="773.00">
        <walk from="TorPl_1_3" to="TorPl_2_2"/>
    </person>
    <person id="pedestrian213" depart="775.00">
        <walk from="BynPl_2_2" to="GorSq_1_2"/>
    </person>
    <person id="pedestrian214" depart="776.00">
        <walk from="HunSt_1_1" to="TorPl_2_1"/>
    </person>
    <person id="pedestrian215" depart="777.00">
        <walk from="HunSt_2_1" to="GowSt_1_1"/>
    </person>
    <person id="pedestrian216" depart="777.00">
        <walk from="GorSq_1_3" to="GowSt_2_1"/>
    </person>
    <person id="pedestrian217" depart="778.00">
        <walk from="GorSq_1_2" to="BynPl_2_1"/>
    </person>
    <person id="pedestrian218" depart="782.00">
        <walk from="BynPl_2_1" to="MalSt_1_1"/>
    </person>
    <person id="pedestrian219" depart="784.00">
        <walk from="BynPl_1_3" to="TorPl_2_1"/>
    </person>
    <person id="pedestrian220" depart="786.00">
        <walk from="HunSt_1_2" to="BynPl_2_1"/>
    </person>
    <person id="pedestrian221" depart="789.00">
        <walk from="GowSt_2_2" to="GowSt_2_3"/>
    </person>
    <person id="pedestrian222" depart="790.00">
        <walk from="HunSt_2_2" to="CheMe_2_1"/>
    </person>
    <person id="pedestrian223" depart="792.00">
        <walk from="BynPl_2_2" to="GorSq_1_3"/>
    </person>
    <person id="pedestrian224" depart="796.00">
        <walk from="GowSt_2_3" to="GorSq_2_3"/>
    </person>
    <person id="pedestrian225" depart="816.00">
        <walk from="MalSt_2_1" to="TorPl_1_4"/>
    </person>
    <person id="pedestrian226" depart="818.00">
        <walk from="GorSq_2_3" to="MalPl_2_1"/>
    </person>
    <person id="pedestrian227" depart="826.00">
        <walk from="GorSq_2_2" to="CheMe_2_1"/>
    </person>
    <person id="pedestrian228" depart="827.00">
        <walk from="TorPl_2_3" to="TorPl_2_5"/>
    </person>
    <person id="pedestrian229" depart="828.00">
        <walk from="TorPl_2_3" to="RidGa_1_1"/>
    </person>
    <person id="pedestrian230" depart="830.00">
        <walk from="HunSt_2_1" to="BynPl_2_2"/>
    </person>
    <person id="pedestrian231" depart="830.00">
        <walk from="MalSt_1_1" to="TorPl_2_1"/>
    </person>
    <person id="pedestrian232" depart="835.00">
        <walk from="CheMe_2_1" to="TorPl_2_4"/>
    </person>
    <person id="pedestrian233" depart="840.00">
        <walk from="GorSq_2_3" to="MalPl_2_1"/>
    </person>
    <person id="pedestrian234" depart="844.00">
        <walk from="MalPl_1_1" to="RidGa_2_1"/>
    </person>
    <person id="pedestrian235" depart="844.00">
        <walk from="HunSt_1_2" to="BynPl_1_1"/>
    </person>
    <person id="pedestrian236" depart="845.00">
        <walk from="GowSt_1_1" to="GorSq_2_2"/>
    </person>
    <person id="pedestrian237" depart="845.00">
        <walk from="GowSt_2_2" to="BynPl_2_1"/>
    </person>
    <person id="pedestrian238" depart="845.00">
        <walk from="GowSt_1_1" to="HunSt_2_2"/>
    </person>
    <person id="pedestrian239" depart="847.00">
        <walk from="HunSt_2_1" to="HunSt_2_1"/>
    </person>
    <person id="pedestrian240" depart="848.00">
        <walk from="TorPl_2_2" to="HunSt_1_2"/>
    </person>
    <person id="pedestrian241" depart="851.00">
        <walk from="GowSt_1_3" to="GowSt_2_1"/>
    </person>
    <person id="pedestrian242" depart="851.00">
        <walk from="RidGa_1_1" to="RidGa_1_1"/>
    </person>
    <person id="pedestrian243" depart="854.00">
        <walk from="MalSt_1_1" to="GorSq_2_2"/>
    </person>
    <person id="pedestrian244" depart="860.00">
        <walk from="TorPl_1_5" to="TorPl_2_5"/>
    </person>
    <person id="pedestrian245" depart="869.00">
        <walk from="TorPl_1_5" to="HunSt_1_1"/>
    </person>
    <person id="pedestrian246" depart="871.00">
        <walk from="MalSt_2_1" to="GowSt_1_1"/>
    </person>
    <person id="pedestrian247" depart="875.00">
        <walk from="GowSt_2_1" to="RidGa_2_1"/>
    </person>
    <person id="pedestrian248" depart="878.00">
        <walk from="TorPl_2_1" to="GowSt_1_1"/>
    </person>
    <person id="pedestrian249" depart="880.00">
        <walk from="TorPl_2_2" to="GowSt_1_1"/>
    </person>
    <person id="pedestrian250" depart="890.00">
        <walk from="RidGa_1_1" to="TorPl_1_5"/>
    </person>
    <person id="pedestrian251" depart="895.00">
        <walk from="BynPl_1_3" to="GorSq_2_1"/>
    </person>
    <person id="pedestrian252" depart="902.00">
        <walk from="TorPl_2_2" to="RidGa_1_1"/>
    </person>
    <person id="pedestrian253" depart="903.00">
        <walk from="MalSt_1_1" to="GorSq_1_2"/>
    </person>
    <person id="pedestrian254" depart="906.00">
        <walk from="BynPl_2_2" to="GowSt_2_1"/>
    </person>
    <person id="pedestrian255" depart="914.00">
        <walk from="BynPl_1_2" to="GowSt_2_2"/>
    </person>
    <person id="pedestrian256" depart="917.00">
        <walk from="TorPl_2_4" to="BynPl_1_2"/>
    </person>
    <person id="pedestrian257" depart="925.00">
        <walk from="BynPl_1_3" to="CheMe_1_1"/>
    </person>
    <person id="pedestrian258" depart="930.00">
        <walk from="TorPl_2_2" to="GorSq_2_1"/>
    </person>
    <person id="pedestrian259" depart="932.00">
        <walk from="TorPl_2_1" to="BynPl_2_3"/>
    </person>
    <person id="pedestrian260" depart="935.00">
        <walk from="TorPl_1_5" to="CheMe_2_1"/>
    </person>