<?xml version="1.0" encoding="UTF-8"?>

<!-- generated on 2025-11-24 12:06:39.469433 by Eclipse SUMO randomTrips.py UNKNOWN
<configuration>
    <net-file value="../networks/demo/main.net.xml"/>
    <output-trip-file value="../routes/demo/1000/pedestrian.trips.xml"/>
    <route-file value="../routes/demo/1000/pedestrian.rou.xml"/>
    <pedestrians value="True"/>
    <prefix value="pedestrian"/>
    <seed value="1000"/>
    <period value="4.0"/>
    <binomial value="100"/>
</configuration>
-->

<!-- generated on 2025-11-24T12:06:39.454317+00:00 by Eclipse SUMO duarouter 1.25.0
<duarouterConfiguration xmlns:xsi="http://www.w3.org/2001/XMLSchema-instance" xsi:noNamespaceSchemaLocation="http://sumo.dlr.de/xsd/duarouterConfiguration.xsd">

    <input>
        <net-file value="../networks/demo/main.net.xml"/>
        <route-files value="../routes/demo/1000/pedestrian.trips.xml"/>
    </input>

    <output>
        <output-file value="../routes/demo/1000/pedestrian.rou.xml"/>
        <alternatives-output value="NUL"/>
    </output>

    <time>
        <begin value="0"/>
        <end value="3600.0"/>
    </time>

    <report>
        <no-warnings value="true"/>
        <ignore-errors value="true"/>
        <no-step-log value="true"/>
    </report>

</duarouterConfiguration>
-->

<routes xmlns:xsi="http://www.w3.org/2001/XMLSchema-instance" xsi:noNamespaceSchemaLocation="http://sumo.dlr.de/xsd/routes_file.xsd">
    <person id="pedestrian0" depart="14.00">
        <walk edges="RidGa_2_1 TorPl_2_3 TorPl_2_2 TorPl_2_1"/>
    </person>
    <person id="pedestrian1" depart="16.00">
        <walk edges="BynPl_2_3 TorPl_2_1 TorPl_2_2 TorPl_2_3 TorPl_2_4"/>
    </person>
    <person id="pedestrian2" depart="21.00">
        <walk edges="GowSt_2_1 GowSt_2_2 TorPl_2_2 TorPl_2_1 BynPl_2_3 BynPl_2_2 BynPl_2_1 GorSq_2_2"/>
    </person>
    <person id="pedestrian3" depart="21.00">
        <walk edges="GorSq_1_3 GorSq_1_2 BynPl_1_3 BynPl_1_2 BynPl_1_1 TorPl_1_5 GowSt_2_3"/>
    </person>
    <person id="pedestrian4" depart="21.00">
        <walk edges="GorSq_1_3 GorSq_1_2 BynPl_1_3 BynPl_2_2 BynPl_2_3 TorPl_2_1"/>
    </person>
    <person id="pedestrian5" depart="28.00">
        <walk edges="BynPl_1_1 BynPl_1_2 BynPl_1_3 GorSq_1_1"/>
    </person>
    <person id="pedestrian6" depart="29.00">
        <walk edges="HunSt_1_1 TorPl_1_2 TorPl_1_3 TorPl_1_4 TorPl_1_5 BynPl_1_1 BynPl_1_2 BynPl_1_3 GorSq_1_1"/>
    </person>
    <person id="pedestrian7" depart="31.00">
        <walk edges="GorSq_2_1 GorSq_2_2 BynPl_2_1 BynPl_2_2 BynPl_1_1 TorPl_1_5 TorPl_1_4 TorPl_1_3 CheMe_1_1"/>
    </person>
    <person id="pedestrian8" depart="33.00">
        <walk edges="BynPl_2_1 BynPl_2_2 BynPl_1_1 TorPl_1_5 TorPl_1_4 TorPl_1_3 TorPl_1_2 HunSt_1_1"/>
    </person>
    <person id="pedestrian9" depart="35.00">
        <walk edges="HunSt_2_1"/>
    </person>
    <person id="pedestrian10" depart="36.00">
        <walk edges="BynPl_1_1 TorPl_1_5 TorPl_1_4 TorPl_1_3 TorPl_1_2 HunSt_2_1"/>
    </person>
    <person id="pedestrian11" depart="38.00">
        <walk edges="GorSq_1_3 GorSq_1_2 BynPl_1_3 BynPl_1_2 BynPl_1_1 TorPl_1_5 GowSt_2_3"/>
    </person>
    <person id="pedestrian12" depart="41.00">
        <walk edges="GorSq_2_1 GorSq_1_2"/>
    </person>
    <person id="pedestrian13" depart="57.00">
        <walk edges="TorPl_1_4 TorPl_1_5 MalPl_2_1"/>
    </person>
    <person id="pedestrian14" depart="57.00">
        <walk edges="TorPl_2_5 HunSt_1_1"/>
    </person>
    <person id="pedestrian15" depart="62.00">
        <walk edges="GorSq_2_2 BynPl_2_1 BynPl_2_2 BynPl_1_1"/>
    </person>
    <person id="pedestrian16" depart="62.00">
        <walk edges="TorPl_1_1"/>
    </person>
    <person id="pedestrian17" depart="64.00">
        <walk edges="BynPl_1_1 TorPl_1_5"/>
    </person>
    <person id="pedestrian18" depart="68.00">
        <walk edges="TorPl_2_1 BynPl_2_3 BynPl_2_2 BynPl_2_1 GorSq_2_2 GorSq_2_1"/>
    </person>
    <person id="pedestrian19" depart="70.00">
        <walk edges="HunSt_1_1 TorPl_2_5"/>
    </person>
    <person id="pedestrian20" depart="74.00">
        <walk edges="MalSt_2_1 TorPl_2_1 TorPl_2_2"/>
    </person>
    <person id="pedestrian21" depart="78.00">
        <walk edges="BynPl_2_2 BynPl_1_1 TorPl_1_5 TorPl_1_4 TorPl_1_3 TorPl_1_2 HunSt_2_2"/>
    </person>
    <person id="pedestrian22" depart="82.00">
        <walk edges="MalSt_1_1 BynPl_2_3 BynPl_2_2 BynPl_2_1"/>
    </person>
    <person id="pedestrian23" depart="87.00">
        <walk edges="BynPl_1_1 TorPl_2_1"/>
    </person>
    <person id="pedestrian24" depart="94.00">
        <walk edges="TorPl_2_2 TorPl_2_1 BynPl_2_3 BynPl_1_2"/>
    </person>
    <person id="pedestrian25" depart="109.00">
        <walk edges="TorPl_2_5 HunSt_2_2"/>
    </person>
    <person id="pedestrian26" depart="112.00">
        <walk edges="TorPl_2_5 TorPl_1_2 TorPl_1_3 TorPl_1_4 TorPl_1_5 BynPl_1_1 BynPl_1_2 BynPl_1_3"/>
    </person>
    <person id="pedestrian27" depart="113.00">
        <walk edges="GorSq_1_2 GorSq_1_1"/>
    </person>
    <person id="pedestrian28" depart="117.00">
        <walk edges="BynPl_1_3 BynPl_1_2 BynPl_1_1 TorPl_1_5 TorPl_1_4"/>
    </person>
    <person id="pedestrian29" depart="125.00">
        <walk edges="BynPl_1_1 BynPl_2_2 BynPl_2_1"/>
    </person>
    <person id="pedestrian30" depart="125.00">
        <walk edges="TorPl_1_5 TorPl_1_4 TorPl_1_3 TorPl_1_2"/>
    </person>
    <person id="pedestrian31" depart="129.00">
        <walk edges="GorSq_2_3 GorSq_1_2"/>
    </person>
    <person id="pedestrian32" depart="130.00">
        <walk edges="GorSq_2_1 GorSq_2_2 BynPl_2_1 BynPl_2_2 BynPl_1_1 TorPl_1_5 TorPl_1_4 TorPl_1_3"/>
    </person>
    <person id="pedestrian33" depart="131.00">
        <walk edges="BynPl_1_3 BynPl_2_2 BynPl_2_3 TorPl_2_1"/>
    </person>
    <person id="pedestrian34" depart="147.00">
        <walk edges="CheMe_2_1 TorPl_1_3 TorPl_1_4 GowSt_1_3"/>
    </person>
    <person id="pedestrian35" depart="154.00">
        <walk edges="GowSt_1_1 GowSt_1_2 TorPl_1_5 BynPl_1_1 BynPl_1_2 BynPl_1_3 GorSq_1_1"/>
    </person>
    <person id="pedestrian36" depart="160.00">
        <walk edges="TorPl_2_3 TorPl_1_5 BynPl_1_1 BynPl_1_2 BynPl_1_3"/>
    </person>
    <person id="pedestrian37" depart="161.00">
        <walk edges="CheMe_2_1 TorPl_1_2 TorPl_2_4"/>
    </person>
    <person id="pedestrian38" depart="166.00">
        <walk edges="GorSq_2_2 BynPl_2_1 BynPl_2_2 BynPl_2_3"/>
    </person>
    <person id="pedestrian39" depart="173.00">
        <walk edges="BynPl_1_2 BynPl_2_2 BynPl_2_1"/>
    </person>
    <person id="pedestrian40" depart="174.00">
        <walk edges="HunSt_2_2 HunSt_1_1"/>
    </person>
    <person id="pedestrian41" depart="176.00">
        <walk edges="TorPl_2_3 GowSt_1_2"/>
    </person>
    <person id="pedestrian42" depart="176.00">
        <walk edges="BynPl_1_1 TorPl_1_5 TorPl_1_4 TorPl_1_3"/>
    </person>
    <person id="pedestrian43" depart="189.00">
        <walk edges="TorPl_2_2 TorPl_2_3 RidGa_1_1"/>
    </person>
    <person id="pedestrian44" depart="191.00">
        <walk edges="TorPl_1_4 TorPl_1_5 BynPl_1_1 BynPl_1_2"/>
    </person>
    <person id="pedestrian45" depart="192.00">
        <walk edges="HunSt_2_1 TorPl_2_4 TorPl_2_3 GowSt_2_2 GowSt_2_1"/>
    </person>
    <person id="pedestrian46" depart="192.00">
        <walk edges="GowSt_2_2 TorPl_1_5 BynPl_1_1 BynPl_1_2 BynPl_1_3 GorSq_1_2"/>
    </person>
    <person id="pedestrian47" depart="200.00">
        <walk edges="GowSt_2_2 TorPl_2_3 TorPl_2_4 HunSt_1_1"/>
    </person>
    <person id="pedestrian48" depart="203.00">
        <walk edges="RidGa_1_1 TorPl_2_4 TorPl_1_2"/>
    </person>
    <person id="pedestrian49" depart="208.00">
        <walk edges="MalSt_1_1 TorPl_2_1 TorPl_2_2 TorPl_2_3 TorPl_2_4 HunSt_2_1"/>
    </person>
    <person id="pedestrian50" depart="208.00">
        <walk edges="TorPl_1_1 TorPl_1_2 TorPl_1_3 TorPl_1_4"/>
    </person>
    <person id="pedestrian51" depart="216.00">
        <walk edges="TorPl_1_4 TorPl_2_3 RidGa_2_1"/>
    </person>
    <person id="pedestrian52" depart="223.00">
        <walk edges="RidGa_2_1 TorPl_2_3 GowSt_1_2 GowSt_1_1"/>
    </person>
    <person id="pedestrian53" depart="223.00">
        <walk edges="TorPl_2_5 TorPl_1_2 TorPl_1_3 TorPl_1_4 GowSt_1_2 GowSt_1_1"/>
    </person>
    <person id="pedestrian54" depart="223.00">
        <walk edges="TorPl_2_4 HunSt_2_2"/>
    </person>
    <person id="pedestrian55" depart="232.00">
        <walk edges="TorPl_1_5 GowSt_1_2"/>
    </person>
    <person id="pedestrian56" depart="233.00">
        <walk edges="BynPl_1_2 BynPl_1_1 TorPl_1_5 TorPl_1_4 TorPl_1_3 TorPl_1_2"/>
    </person>
    <person id="pedestrian57" depart="249.00">
        <walk edges="GowSt_1_1 GowSt_1_2 TorPl_2_2 TorPl_2_1 MalSt_2_1"/>
    </person>
    <person id="pedestrian58" depart="266.00">
        <walk edges="MalPl_2_1"/>
    </person>
    <person id="pedestrian59" depart="268.00">
        <walk edges="TorPl_1_4 TorPl_1_3 TorPl_1_2 TorPl_2_5"/>
    </person>
    <person id="pedestrian60" depart="277.00">
        <walk edges="TorPl_1_1 HunSt_2_1"/>
    </person>
    <person id="pedestrian61" depart="278.00">
        <walk edges="MalPl_1_1 BynPl_1_1 BynPl_1_2 BynPl_1_3 GorSq_1_1"/>
    </person>
    <person id="pedestrian62" depart="288.00">
        <walk edges="RidGa_1_1 TorPl_2_3 GowSt_1_3"/>
    </person>
    <person id="pedestrian63" depart="290.00">
        <walk edges="HunSt_2_1 TorPl_1_2 TorPl_1_3 TorPl_1_4 TorPl_1_5 BynPl_1_1 BynPl_1_2 BynPl_1_3 GorSq_1_2"/>
    </person>
    <person id="pedestrian64" depart="297.00">
        <walk edges="CheMe_2_1 TorPl_1_3 TorPl_1_4 GowSt_1_3"/>
    </person>
    <person id="pedestrian65" depart="297.00">
        <walk edges="BynPl_2_1 BynPl_2_2 BynPl_2_3 TorPl_2_1 TorPl_2_2 TorPl_2_3 TorPl_2_4 HunSt_2_1"/>
    </person>
    <person id="pedestrian66" depart="300.00">
        <walk edges="BynPl_2_1 BynPl_2_2 BynPl_1_1 TorPl_1_5 GowSt_1_2 GowSt_1_1"/>
    </person>
    <person id="pedestrian67" depart="303.00">
        <walk edges="HunSt_1_2 TorPl_2_4 TorPl_2_3"/>
    </person>
    <person id="pedestrian68" depart="307.00">
        <walk edges="GorSq_2_1 GorSq_2_2 BynPl_2_1 BynPl_2_2 BynPl_2_3 TorPl_2_1 TorPl_2_2 GowSt_2_2"/>
    </person>
    <person id="pedestrian69" depart="308.00">
        <walk edges="BynPl_1_2 BynPl_1_3 GorSq_1_1"/>
    </person>
    <person id="pedestrian70" depart="310.00">
        <walk edges="GowSt_2_1 GowSt_2_2 TorPl_1_5 BynPl_1_1 BynPl_1_2 BynPl_1_3 GorSq_1_2"/>
    </person>
    <person id="pedestrian71" depart="315.00">
        <walk edges="RidGa_2_1 TorPl_2_3 TorPl_1_5 BynPl_1_1 BynPl_1_2 BynPl_1_3 GorSq_1_1"/>
    </person>
    <person id="pedestrian72" depart="321.00">
        <walk edges="MalSt_1_1 TorPl_1_5 TorPl_1_4 TorPl_1_3 TorPl_1_2 HunSt_2_2"/>
    </person>
    <person id="pedestrian73" depart="324.00">
        <walk edges="GorSq_1_2 BynPl_1_3 BynPl_1_2 BynPl_1_1 TorPl_1_5 TorPl_2_3 TorPl_2_4 HunSt_1_2"/>
    </person>
    <person id="pedestrian74" depart="324.00">
        <walk edges="RidGa_1_1 TorPl_2_3 TorPl_2_2 TorPl_2_1"/>
    </person>
    <person id="pedestrian75" depart="329.00">
        <walk edges="GorSq_2_2 BynPl_2_1 BynPl_2_2 BynPl_2_3 TorPl_2_1 TorPl_2_2 TorPl_2_3 TorPl_2_4 HunSt_1_2"/>
    </person>
    <person id="pedestrian76" depart="331.00">
        <walk edges="TorPl_2_2 TorPl_2_3 TorPl_2_4 TorPl_2_5"/>
    </person>
    <person id="pedestrian77" depart="335.00">
        <walk edges="HunSt_2_1 TorPl_1_1"/>
    </person>
    <person id="pedestrian78" depart="336.00">
        <walk edges="BynPl_2_3 BynPl_1_1"/>
    </person>
    <person id="pedestrian79" depart="343.00">
        <walk edges="TorPl_2_5 TorPl_1_2 TorPl_1_3 TorPl_1_4"/>
    </person>
    <person id="pedestrian80" depart="345.00">
        <walk edges="GowSt_2_3 GowSt_1_2"/>
    </person>
    <person id="pedestrian81" depart="356.00">
        <walk edges="MalSt_1_1 MalSt_2_1"/>
    </person>
    <person id="pedestrian82" depart="357.00">
        <walk edges="TorPl_2_1 TorPl_2_2 TorPl_2_3 TorPl_2_4 HunSt_1_1"/>
    </person>
    <person id="pedestrian83" depart="363.00">
        <walk edges="BynPl_2_3 MalSt_2_1"/>
    </person>
    <person id="pedestrian84" depart="379.00">
        <walk edges="GowSt_2_3 TorPl_1_5"/>
    </person>
    <person id="pedestrian85" depart="381.00">
        <walk edges="BynPl_2_1 BynPl_2_2 BynPl_2_3 TorPl_2_1 TorPl_2_2 TorPl_2_3 RidGa_2_1"/>
    </person>
    <person id="pedestrian86" depart="383.00">
        <walk edges="MalPl_1_1 TorPl_1_5 TorPl_2_3 RidGa_2_1"/>
    </person>
    <person id="pedestrian87" depart="383.00">
        <walk edges="TorPl_2_1 BynPl_2_3 BynPl_1_2"/>
    </person>
    <person id="pedestrian88" depart="389.00">
        <walk edges="RidGa_2_1 TorPl_2_4 TorPl_1_2"/>
    </person>
    <person id="pedestrian89" depart="390.00">
        <walk edges="GorSq_1_2 BynPl_1_3 BynPl_1_2 BynPl_1_1 TorPl_1_5 TorPl_1_4"/>
    </person>
    <person id="pedestrian90" depart="390.00">
        <walk edges="GowSt_1_2 TorPl_1_5 BynPl_1_1 BynPl_2_2 BynPl_2_1"/>
    </person>
    <person id="pedestrian91" depart="391.00">
        <walk edges="BynPl_2_1 BynPl_2_2 BynPl_1_1 TorPl_1_5 GowSt_1_2 GowSt_1_1"/>
    </person>
    <person id="pedestrian92" depart="394.00">
        <walk edges="BynPl_2_2 BynPl_1_1 TorPl_1_5 TorPl_1_4 TorPl_1_3 TorPl_1_2 TorPl_1_1"/>
    </person>
    <person id="pedestrian93" depart="394.00">
        <walk edges="HunSt_2_2 TorPl_1_2 TorPl_1_3"/>
    </person>
    <person id="pedestrian94" depart="396.00">
        <walk edges="BynPl_2_2 BynPl_2_3 TorPl_2_1 TorPl_2_2 GowSt_2_2"/>
    </person>
    <person id="pedestrian95" depart="397.00">
        <walk edges="BynPl_2_2 BynPl_1_1 TorPl_1_5 TorPl_1_4 TorPl_1_3 TorPl_1_2 HunSt_1_1"/>
    </person>
    <person id="pedestrian96" depart="401.00">
        <walk edges="BynPl_2_3 TorPl_2_1 TorPl_2_2 TorPl_2_3 TorPl_2_4 HunSt_1_2"/>
    </person>
    <person id="pedestrian97" depart="403.00">
        <walk edges="TorPl_1_3 TorPl_1_4 TorPl_1_5 BynPl_1_1 BynPl_2_2 BynPl_2_1 GorSq_2_2 GorSq_2_1"/>
    </person>
    <person id="pedestrian98" depart="416.00">
        <walk edges="BynPl_1_2 BynPl_2_3 MalSt_2_1"/>
    </person>
    <person id="pedestrian99" depart="422.00">
        <walk edges="CheMe_2_1 TorPl_1_2 TorPl_2_4 RidGa_2_1"/>
    </person>
    <person id="pedestrian100" depart="424.00">
        <walk edges="MalPl_2_1 BynPl_1_1"/>
    </person>
    <person id="pedestrian101" depart="426.00">
        <walk edges="BynPl_2_3 TorPl_1_5 TorPl_1_4 TorPl_1_3 TorPl_1_2"/>
    </person>
    <person id="pedestrian102" depart="443.00">
        <walk edges="GowSt_1_2 TorPl_1_4 TorPl_1_3 TorPl_1_2 HunSt_2_2"/>
    </person>
    <person id="pedestrian103" depart="452.00">
        <walk edges="MalPl_2_1 BynPl_1_1 BynPl_2_2 BynPl_2_1"/>
    </person>
    <person id="pedestrian104" depart="452.00">
        <walk edges="TorPl_2_4 TorPl_2_3 TorPl_2_2 TorPl_2_1"/>
    </person>
    <person id="pedestrian105" depart="461.00">
        <walk edges="HunSt_2_1 TorPl_1_2 TorPl_1_3 TorPl_1_4 TorPl_1_5 BynPl_1_1 BynPl_1_2 BynPl_1_3 GorSq_1_1"/>
    </person>
    <person id="pedestrian106" depart="462.00">
        <walk edges="TorPl_1_4 GowSt_2_2 GowSt_2_1"/>
    </person>
    <person id="pedestrian107" depart="496.00">
        <walk edges="RidGa_2_1 TorPl_2_3 TorPl_1_5 MalPl_2_1"/>
    </person>
    <person id="pedestrian108" depart="498.00">
        <walk edges="BynPl_1_3 BynPl_1_2 BynPl_1_1 TorPl_1_5 GowSt_2_2"/>
    </person>
    <person id="pedestrian109" depart="502.00">
        <walk edges="BynPl_2_1 BynPl_1_3 GorSq_2_3"/>
    </person>
    <person id="pedestrian110" depart="503.00">
        <walk edges="TorPl_2_1 TorPl_2_2 TorPl_1_4 TorPl_1_3 TorPl_1_2"/>
    </person>
    <person id="pedestrian111" depart="511.00">
        <walk edges="GorSq_2_2 BynPl_2_1 BynPl_2_2 BynPl_1_1 TorPl_1_5 TorPl_1_4"/>
    </person>
    <person id="pedestrian112" depart="523.00">
        <walk edges="HunSt_1_2 TorPl_2_4 TorPl_2_3 TorPl_1_5 BynPl_1_1 BynPl_1_2 BynPl_1_3"/>
    </person>
    <person id="pedestrian113" depart="526.00">
        <walk edges="BynPl_1_2 BynPl_1_1 MalPl_1_1"/>
    </person>
    <person id="pedestrian114" depart="533.00">
        <walk edges="TorPl_2_1 TorPl_2_2 TorPl_2_3 RidGa_1_1"/>
    </person>
    <person id="pedestrian115" depart="534.00">
        <walk edges="TorPl_1_2 TorPl_2_4 RidGa_2_1"/>
    </person>
    <person id="pedestrian116" depart="540.00">
        <walk edges="GorSq_1_1 BynPl_1_3 BynPl_1_2 BynPl_1_1 MalPl_2_1"/>
    </person>
    <person id="pedestrian117" depart="543.00">
        <walk edges="GorSq_1_3 GorSq_1_2 BynPl_1_3 BynPl_2_2 BynPl_2_3 MalSt_1_1"/>
    </person>
    <person id="pedestrian118" depart="545.00">
        <walk edges="HunSt_2_1 TorPl_1_2 TorPl_1_3 TorPl_1_4 TorPl_1_5 BynPl_1_1 BynPl_1_2 BynPl_1_3 GorSq_2_3"/>
    </person>
    <person id="pedestrian119" depart="546.00">
        <walk edges="TorPl_1_2 CheMe_1_1"/>
    </person>
    <person id="pedestrian120" depart="547.00">
        <walk edges="GowSt_1_1 GowSt_1_2 TorPl_1_5 BynPl_2_3"/>
    </person>
    <person id="pedestrian121" depart="548.00">
        <walk edges="HunSt_2_1 TorPl_1_2 TorPl_1_3"/>
    </person>
    <person id="pedestrian122" depart="549.00">
        <walk edges="RidGa_1_1 TorPl_2_3 GowSt_2_2"/>
    </person>
    <person id="pedestrian123" depart="552.00">
        <walk edges="GowSt_1_1 GowSt_1_2 TorPl_2_2 TorPl_2_1 MalSt_2_1"/>
    </person>
    <person id="pedestrian124" depart="575.00">
        <walk edges="TorPl_2_4 TorPl_1_2 CheMe_1_1"/>
    </person>
    <person id="pedestrian125" depart="575.00">
        <walk edges="GowSt_1_3"/>
    </person>
    <person id="pedestrian126" depart="581.00">
        <walk edges="TorPl_1_5"/>
    </person>
    <person id="pedestrian127" depart="581.00">
        <walk edges="GowSt_2_2 TorPl_2_2"/>
    </person>
    <person id="pedestrian128" depart="584.00">
        <walk edges="BynPl_2_1 BynPl_2_2 BynPl_1_1 MalPl_2_1"/>
    </person>
    <person id="pedestrian129" depart="587.00">
        <walk edges="TorPl_1_2 HunSt_1_2"/>
    </person>
    <person id="pedestrian130" depart="590.00">
        <walk edges="TorPl_1_2 TorPl_1_3 TorPl_1_4 TorPl_1_5 BynPl_1_1 BynPl_2_2 BynPl_2_1"/>
    </person>
    <person id="pedestrian131" depart="590.00">
        <walk edges="GorSq_2_1 GorSq_2_2 BynPl_2_1 BynPl_2_2 BynPl_1_1 TorPl_1_5 GowSt_1_2"/>
    </person>
    <person id="pedestrian132" depart="592.00">
        <walk edges="TorPl_1_1 HunSt_1_2"/>
    </person>
    <person id="pedestrian133" depart="594.00">
        <walk edges="HunSt_1_2 TorPl_2_4 TorPl_2_3 TorPl_2_2"/>
    </person>
    <person id="pedestrian134" depart="594.00">
        <walk edges="HunSt_2_2 TorPl_1_2 CheMe_2_1"/>
    </person>
    <person id="pedestrian135" depart="595.00">
        <walk edges="BynPl_1_3 BynPl_1_2 BynPl_1_1 TorPl_1_5 GowSt_1_2 GowSt_1_1"/>
    </person>
    <person id="pedestrian136" depart="602.00">
        <walk edges="TorPl_1_2 TorPl_1_3 TorPl_1_4 TorPl_1_5 BynPl_1_1 BynPl_1_2 BynPl_1_3 GorSq_1_1"/>
    </person>
    <person id="pedestrian137" depart="605.00">
        <walk edges="MalPl_1_1 BynPl_1_1 BynPl_1_2"/>
    </person>
    <person id="pedestrian138" depart="607.00">
        <walk edges="TorPl_2_5 TorPl_2_4 TorPl_2_3 TorPl_2_2 TorPl_2_1 BynPl_2_3 BynPl_2_2 BynPl_2_1 GorSq_2_2 GorSq_2_1"/>
    </person>
    <person id="pedestrian139" depart="607.00">
        <walk edges="GorSq_1_2 BynPl_1_3 BynPl_1_2"/>
    </person>
    <person id="pedestrian140" depart="613.00">
        <walk edges="HunSt_2_1 TorPl_2_4 TorPl_2_3 GowSt_2_2"/>
    </person>
    <person id="pedestrian141" depart="618.00">
        <walk edges="TorPl_2_3 GowSt_1_3"/>
    </person>
    <person id="pedestrian142" depart="621.00">
        <walk edges="GorSq_1_1 GorSq_1_2 GorSq_2_1"/>
    </person>
    <person id="pedestrian143" depart="621.00">
        <walk edges="RidGa_1_1 TorPl_2_4 TorPl_1_1"/>
    </person>
    <person id="pedestrian144" depart="623.00">
        <walk edges="MalSt_1_1 MalPl_2_1"/>
    </person>
    <person id="pedestrian145" depart="626.00">
        <walk edges="TorPl_1_1 TorPl_2_4 TorPl_2_3 GowSt_2_2"/>
    </person>
    <person id="pedestrian146" depart="629.00">
        <walk edges="TorPl_2_3 TorPl_1_4 TorPl_1_3"/>
    </person>
    <person id="pedestrian147" depart="630.00">
        <walk edges="RidGa_2_1 TorPl_2_4 TorPl_2_5"/>
    </person>
    <person id="pedestrian148" depart="630.00">
        <walk edges="HunSt_1_1 HunSt_2_1"/>
    </person>
    <person id="pedestrian149" depart="631.00">
        <walk edges="HunSt_2_2 TorPl_2_4 RidGa_2_1"/>
    </person>
    <person id="pedestrian150" depart="632.00">
        <walk edges="MalPl_2_1 TorPl_1_5 GowSt_1_2 GowSt_1_1"/>
    </person>
    <person id="pedestrian151" depart="637.00">
        <walk edges="TorPl_1_3 TorPl_1_2 TorPl_1_1"/>
    </person>
    <person id="pedestrian152" depart="637.00">
        <walk edges="RidGa_2_1 TorPl_2_3 TorPl_1_5 BynPl_1_1 BynPl_1_2 BynPl_1_3"/>
    </person>
    <person id="pedestrian153" depart="638.00">
        <walk edges="BynPl_1_3 GorSq_1_2 GorSq_2_1"/>
    </person>
    <person id="pedestrian154" depart="641.00">
        <walk edges="HunSt_2_1 TorPl_1_2 TorPl_1_3 TorPl_1_4 TorPl_1_5 BynPl_1_1 BynPl_1_2"/>
    </person>
    <person id="pedestrian155" depart="646.00">
        <walk edges="BynPl_1_2 BynPl_1_1 TorPl_1_5 TorPl_1_4 TorPl_1_3 TorPl_1_2"/>
    </person>
    <person id="pedestrian156" depart="646.00">
        <walk edges="TorPl_1_3 TorPl_1_2 HunSt_2_1"/>
    </person>
    <person id="pedestrian157" depart="647.00">
        <walk edges="GowSt_1_1 GowSt_1_2 GowSt_1_3"/>
    </person>
    <person id="pedestrian158" depart="648.00">
        <walk edges="RidGa_1_1 TorPl_2_4 TorPl_1_2 CheMe_2_1"/>
    </person>
    <person id="pedestrian159" depart="650.00">
        <walk edges="BynPl_1_1 TorPl_1_5 TorPl_1_4"/>
    </person>
    <person id="pedestrian160" depart="650.00">
        <walk edges="RidGa_2_1 TorPl_2_4 HunSt_2_1"/>
    </person>
    <person id="pedestrian161" depart="651.00">
        <walk edges="GowSt_2_2"/>
    </person>
    <person id="pedestrian162" depart="651.00">
        <walk edges="BynPl_2_2 BynPl_2_3 TorPl_2_1 TorPl_2_2 TorPl_2_3"/>
    </person>
    <person id="pedestrian163" depart="657.00">
        <walk edges="GowSt_1_1 GowSt_1_2 TorPl_1_4 TorPl_1_3 TorPl_1_2 HunSt_1_1"/>
    </person>
    <person id="pedestrian164" depart="663.00">
        <walk edges="TorPl_2_1 BynPl_2_3 BynPl_2_2 BynPl_1_3"/>
    </person>
    <person id="pedestrian165" depart="667.00">
        <walk edges="GorSq_2_1 GorSq_2_2 BynPl_2_1 BynPl_2_2 BynPl_1_1 TorPl_1_5 TorPl_1_4 TorPl_1_3 TorPl_1_2 HunSt_1_1"/>
    </person>
    <person id="pedestrian166" depart="680.00">
        <walk edges="MalSt_1_1 TorPl_2_1 TorPl_2_2 TorPl_2_3"/>
    </person>
    <person id="pedestrian167" depart="681.00">
        <walk edges="TorPl_1_3 TorPl_1_4 TorPl_1_5 BynPl_1_1 BynPl_2_2"/>
    </person>
    <person id="pedestrian168" depart="686.00">
        <walk edges="GorSq_2_1 GorSq_2_2 BynPl_2_1 BynPl_2_2 BynPl_2_3 TorPl_2_1 TorPl_2_2 GowSt_1_3"/>
    </person>
    <person id="pedestrian169" depart="688.00">
        <walk edges="BynPl_1_1 BynPl_1_2 BynPl_1_3 GorSq_1_1"/>
    </person>
    <person id="pedestrian170" depart="689.00">
        <walk edges="HunSt_2_2 TorPl_1_2 TorPl_1_3 TorPl_1_4 TorPl_1_5 BynPl_2_3"/>
    </person>
    <person id="pedestrian171" depart="690.00">
        <walk edges="TorPl_2_5 TorPl_1_2 TorPl_1_3 TorPl_1_4 TorPl_1_5 BynPl_1_1 BynPl_1_2 BynPl_1_3 GorSq_1_2"/>
    </person>
    <person id="pedestrian172" depart="692.00">
        <walk edges="GowSt_1_2 GowSt_2_3"/>
    </person>
    <person id="pedestrian173" depart="694.00">
        <walk edges="GorSq_2_3 BynPl_1_3 BynPl_1_2 BynPl_1_1 MalPl_2_1"/>
    </person>
    <person id="pedestrian174" depart="695.00">
        <walk edges="HunSt_1_1 TorPl_1_2 TorPl_1_3 TorPl_1_4 TorPl_1_5 BynPl_1_1"/>
    </person>
    <person id="pedestrian175" depart="704.00">
        <walk edges="GowSt_2_2 TorPl_1_5 BynPl_1_1 BynPl_1_2 BynPl_1_3 GorSq_1_2 GorSq_1_3"/>
    </person>
    <person id="pedestrian176" depart="708.00">
        <walk edges="TorPl_2_2 GowSt_1_3"/>
    </person>
    <person id="pedestrian177" depart="714.00">
        <walk edges="RidGa_1_1 TorPl_2_3 TorPl_1_5 BynPl_1_1 BynPl_1_2 BynPl_1_3 GorSq_1_2"/>
    </person>
    <person id="pedestrian178" depart="720.00">
        <walk edges="MalPl_2_1 TorPl_1_5 TorPl_1_4 TorPl_1_3 TorPl_1_2"/>
    </person>
    <person id="pedestrian179" depart="723.00">
        <walk edges="MalSt_1_1 TorPl_1_5 TorPl_1_4 TorPl_1_3 TorPl_1_2"/>
    </person>
    <person id="pedestrian180" depart="729.00">
        <walk edges="TorPl_1_2 TorPl_1_3 TorPl_1_4 TorPl_2_2 TorPl_2_1 MalSt_2_1"/>
    </person>
    <person id="pedestrian181" depart="731.00">
        <walk edges="BynPl_2_1 BynPl_2_2 BynPl_1_1 TorPl_1_5 GowSt_1_2"/>
    </person>
    <person id="pedestrian182" depart="735.00">
        <walk edges="HunSt_1_1 TorPl_1_2 TorPl_1_3 TorPl_1_4 TorPl_1_5 BynPl_1_1 BynPl_1_2"/>
    </person>
    <person id="pedestrian183" depart="735.00">
        <walk edges="TorPl_1_1 TorPl_1_2 TorPl_1_3 TorPl_1_4 TorPl_1_5 MalPl_2_1"/>
    </person>
    <person id="pedestrian184" depart="735.00">
        <walk edges="BynPl_2_2 BynPl_1_1 TorPl_1_5 TorPl_1_4 TorPl_1_3 CheMe_2_1"/>
    </person>
    <person id="pedestrian185" depart="739.00">
        <walk edges="GowSt_2_3 TorPl_2_3"/>
    </person>
    <person id="pedestrian186" depart="739.00">
        <walk edges="BynPl_1_1 BynPl_2_3"/>
    </person>
    <person id="pedestrian187" depart="743.00">
        <walk edges="BynPl_2_2 BynPl_2_3 TorPl_2_1 TorPl_2_2 TorPl_2_3 TorPl_2_4 TorPl_2_5"/>
    </person>
    <person id="pedestrian188" depart="743.00">
        <walk edges="GowSt_1_2 TorPl_1_4 TorPl_1_3 TorPl_1_2 HunSt_2_2"/>
    </person>
    <person id="pedestrian189" depart="746.00">
        <walk edges="GowSt_2_2 TorPl_2_2 TorPl_2_1 BynPl_2_3 BynPl_2_2 BynPl_2_1 GorSq_2_2"/>
    </person>
    <person id="pedestrian190" depart="748.00">
        <walk edges="GorSq_1_3 GorSq_1_2 BynPl_1_3 BynPl_1_2 BynPl_1_1 TorPl_1_5 TorPl_1_4"/>
    </person>
    <person id="pedestrian191" depart="750.00">
        <walk edges="TorPl_1_3 TorPl_1_4 TorPl_2_2"/>
    </person>
    <person id="pedestrian192" depart="753.00">
        <walk edges="TorPl_1_1 TorPl_1_2 TorPl_1_3 TorPl_1_4 TorPl_1_5 BynPl_1_1 BynPl_1_2 BynPl_1_3 GorSq_1_2"/>
    </person>
    <person id="pedestrian193" depart="755.00">
        <walk edges="MalPl_2_1 TorPl_1_5 TorPl_2_3"/>
    </person>
    <person id="pedestrian194" depart="759.00">
        <walk edges="TorPl_2_1 BynPl_2_3 BynPl_1_2"/>
    </person>
    <person id="pedestrian195" depart="761.00">
        <walk edges="GorSq_1_1 BynPl_1_3 BynPl_1_2"/>
    </person>
    <person id="pedestrian196" depart="762.00">
        <walk edges="HunSt_2_1 TorPl_1_2 TorPl_1_3 TorPl_1_4 GowSt_2_3"/>
    </person>
    <person id="pedestrian197" depart="762.00">
        <walk edges="TorPl_1_4 TorPl_1_5"/>
    </person>
    <person id="pedestrian198" depart="765.00">
        <walk edges="GowSt_2_2 TorPl_2_3 TorPl_2_4 TorPl_1_1"/>
    </person>
    <person id="pedestrian199" depart="767.00">
        <walk edges="TorPl_2_5 TorPl_1_2 TorPl_1_3 TorPl_1_4 TorPl_1_5"/>
    </person>
    <person id="pedestrian200" depart="768.00">
        <walk edges="MalSt_2_1 TorPl_2_1 TorPl_2_2 TorPl_1_4 TorPl_1_3 CheMe_2_1"/>
    </person>
    <person id="pedestrian201" depart="771.00">
        <walk edges="TorPl_1_2 TorPl_1_3 TorPl_1_4 TorPl_1_5 BynPl_1_1 BynPl_2_2 BynPl_2_1"/>
    </person>
    <person id="pedestrian202" depart="791.00">
        <walk edges="GowSt_2_2 TorPl_1_5 MalPl_2_1"/>
    </person>
    <person id="pedestrian203" depart="801.00">
        <walk edges="GowSt_2_2 TorPl_2_2 TorPl_2_1 BynPl_2_3 BynPl_2_2"/>
    </person>
    <person id="pedestrian204" depart="803.00">
        <walk edges="BynPl_2_1 BynPl_2_2 BynPl_1_1 MalPl_2_1"/>
    </person>
    <person id="pedestrian205" depart="803.00">
        <walk edges="GorSq_2_2 BynPl_2_1 BynPl_2_2 BynPl_2_3 TorPl_2_1 TorPl_2_2 TorPl_2_3 TorPl_2_4"/>
    </person>
    <person id="pedestrian206" depart="805.00">
        <walk edges="BynPl_1_3 BynPl_1_2 BynPl_1_1 TorPl_1_5"/>
    </person>
    <person id="pedestrian207" depart="811.00">
        <walk edges="TorPl_2_1 TorPl_2_2 TorPl_1_4 TorPl_1_3 CheMe_1_1"/>
    </person>
    <person id="pedestrian208" depart="819.00">
        <walk edges="HunSt_1_2 TorPl_2_4 TorPl_2_3 TorPl_2_2 TorPl_2_1"/>
    </person>
    <person id="pedestrian209" depart="820.00">
        <walk edges="GowSt_2_3 TorPl_1_5 BynPl_1_1 BynPl_1_2"/>
    </person>
    <person id="pedestrian210" depart="823.00">
        <walk edges="RidGa_1_1 TorPl_2_3 GowSt_1_2 GowSt_1_1"/>
    </person>
    <person id="pedestrian211" depart="823.00">
        <walk edges="GorSq_2_3 BynPl_1_3 BynPl_2_1 GorSq_2_2"/>
    </person>
    <person id="pedestrian212" depart="834.00">
        <walk edges="TorPl_1_1 TorPl_2_4 TorPl_2_3 TorPl_2_2"/>
    </person>
    <person id="pedestrian213" depart="844.00">
        <walk edges="CheMe_2_1 TorPl_1_3 TorPl_1_4 TorPl_1_5"/>
    </person>
    <person id="pedestrian214" depart="844.00">
        <walk edges="HunSt_1_2 TorPl_2_4 TorPl_2_3 TorPl_2_2 TorPl_2_1 BynPl_2_3 BynPl_2_2 BynPl_2_1 GorSq_2_2 GorSq_2_1"/>
    </person>
    <person id="pedestrian215" depart="845.00">
        <walk edges="TorPl_1_4 GowSt_1_3"/>
    </person>
    <person id="pedestrian216" depart="846.00">
        <walk edges="GorSq_1_1 BynPl_1_3 BynPl_1_2 BynPl_1_1 TorPl_1_5 GowSt_1_2"/>
    </person>
    <person id="pedestrian217" depart="847.00">
        <walk edges="CheMe_1_1 TorPl_1_3 TorPl_1_4 TorPl_1_5 BynPl_1_1 BynPl_1_2 BynPl_1_3 GorSq_1_2 GorSq_1_3"/>
    </person>
    <person id="pedestrian218" depart="853.00">