<?xml version="1.0" encoding="UTF-8"?>

<!-- generated on 2025-11-24 14:59:31.719660 by Eclipse SUMO randomTrips.py UNKNOWN
<configuration>
    <net-file value="../networks/demo/main.net.xml"/>
    <output-trip-file value="../routes/demo/1/pedestrian.trips.xml"/>
    <route-file value="../routes/demo/1/pedestrian.rou.xml"/>
    <pedestrians value="True"/>
    <prefix value="pedestrian"/>
    <seed value="1"/>
    <period value="5.0"/>
    <binomial value="100"/>
</configuration>
-->

<!-- generated on 2025-11-24T14:59:31.707087+00:00 by Eclipse SUMO duarouter 1.25.0
<duarouterConfiguration xmlns:xsi="http://www.w3.org/2001/XMLSchema-instance" xsi:noNamespaceSchemaLocation="http://sumo.dlr.de/xsd/duarouterConfiguration.xsd">

    <input>
        <net-file value="../networks/demo/main.net.xml"/>
        <route-files value="../routes/demo/1/pedestrian.trips.xml"/>
    </input>

    <output>
        <output-file value="../routes/demo/1/pedestrian.rou.xml"/>
        <alternatives-output value="NUL"/>
    </output>

    <time>
        <begin value="0"/>
        <end value="3600.0"/>
    </time>

    <report>
        <no-warnings value="true"/>
        <ignore-errors value="true"/>
        <no-step-log value="true"/>
    </report>

</duarouterConfiguration>
-->

<routes xmlns:xsi="http://www.w3.org/2001/XMLSchema-instance" xsi:noNamespaceSchemaLocation="http://sumo.dlr.de/xsd/routes_file.xsd">
    <person id="pedestrian0" depart="5.00">
        <walk edges="GowSt_1_2 GowSt_2_1"/>
    </person>
    <person id="pedestrian1" depart="11.00">
        <walk edges="BynPl_1_2 BynPl_2_2"/>
    </person>
    <person id="pedestrian2" depart="16.00">
        <walk edges="MalSt_2_1 BynPl_2_3 BynPl_2_2 BynPl_2_1 GorSq_2_2 GorSq_2_1"/>
    </person>
    <person id="pedestrian3" depart="23.00">
        <walk edges="GorSq_2_1 GorSq_2_2 BynPl_2_1 BynPl_2_2 BynPl_2_3 TorPl_2_1 TorPl_2_2 RidGa_2_1"/>
    </person>
    <person id="pedestrian4" depart="38.00">
        <walk edges="GorSq_2_1 GorSq_2_2 BynPl_2_1 BynPl_2_2 BynPl_1_1 MalPl_2_1"/>
    </person>
    <person id="pedestrian5" depart="39.00">
        <walk edges="BynPl_1_2 BynPl_1_3"/>
    </person>
    <person id="pedestrian6" depart="43.00">
        <walk edges="GowSt_1_2 TorPl_1_4 BynPl_1_1 BynPl_1_2 BynPl_1_3 GorSq_1_1"/>
    </person>
    <person id="pedestrian7" depart="48.00">
        <walk edges="HunSt_2_1 TorPl_2_3 TorPl_2_2"/>
    </person>
    <person id="pedestrian8" depart="48.00">
        <walk edges="BynPl_1_1 BynPl_1_2 BynPl_1_3 GorSq_2_3"/>
    </person>
    <person id="pedestrian9" depart="53.00">
        <walk edges="BynPl_1_3 BynPl_1_2 BynPl_1_1 TorPl_1_4 TorPl_2_2 TorPl_2_3 HunSt_1_2"/>
    </person>
    <person id="pedestrian10" depart="59.00">
        <walk edges="BynPl_1_2 BynPl_1_1 MalPl_1_1"/>
    </person>
    <person id="pedestrian11" depart="61.00">
        <walk edges="TorPl_2_2 TorPl_1_4 BynPl_1_1 BynPl_1_2 BynPl_1_3 GorSq_1_2 GorSq_1_3"/>
    </person>
    <person id="pedestrian12" depart="67.00">
        <walk edges="RidGa_2_1 TorPl_2_2 TorPl_2_1 BynPl_2_3 BynPl_2_2"/>
    </person>
    <person id="pedestrian13" depart="67.00">
        <walk edges="HunSt_2_2 TorPl_1_2 TorPl_1_3 TorPl_1_4 BynPl_1_1 BynPl_1_2"/>
    </person>
    <person id="pedestrian14" depart="70.00">
        <walk edges="CheMe_1_1 TorPl_1_3 TorPl_1_4 BynPl_1_1 BynPl_2_2 BynPl_2_1 GorSq_2_2"/>
    </person>
    <person id="pedestrian15" depart="70.00">
        <walk edges="HunSt_2_1 TorPl_1_2 TorPl_1_3"/>
    </person>
    <person id="pedestrian16" depart="80.00">
        <walk edges="RidGa_1_1 TorPl_2_2 TorPl_1_4 BynPl_1_1 BynPl_1_2 BynPl_1_3 GorSq_1_1"/>
    </person>
    <person id="pedestrian17" depart="80.00">
        <walk edges="BynPl_2_2 BynPl_1_1 TorPl_1_4 TorPl_1_3 CheMe_2_1"/>
    </person>
    <person id="pedestrian18" depart="90.00">
        <walk edges="HunSt_2_1 TorPl_2_3 TorPl_2_2 GowSt_1_2"/>
    </person>
    <person id="pedestrian19" depart="90.00">
        <walk edges="GorSq_2_1 GorSq_1_2"/>
    </person>
    <person id="pedestrian20" depart="93.00">
        <walk edges="CheMe_2_1 TorPl_1_2 TorPl_2_3 RidGa_1_1"/>
    </person>
    <person id="pedestrian21" depart="96.00">
        <walk edges="TorPl_2_1 BynPl_2_3 BynPl_2_2"/>
    </person>
    <person id="pedestrian22" depart="99.00">
        <walk edges="GorSq_1_2 BynPl_1_3 BynPl_2_1"/>
    </person>
    <person id="pedestrian23" depart="99.00">
        <walk edges="RidGa_1_1 TorPl_2_3 TorPl_2_4"/>
    </person>
    <person id="pedestrian24" depart="100.00">
        <walk edges="TorPl_1_3 TorPl_1_2 TorPl_2_3 RidGa_2_1"/>
    </person>
    <person id="pedestrian25" depart="100.00">
        <walk edges="MalSt_1_1 TorPl_2_1 TorPl_2_2"/>
    </person>
    <person id="pedestrian26" depart="102.00">
        <walk edges="GowSt_2_2 TorPl_1_3 TorPl_1_2 TorPl_2_4"/>
    </person>
    <person id="pedestrian27" depart="111.00">
        <walk edges="HunSt_2_2"/>
    </person>
    <person id="pedestrian28" depart="117.00">
        <walk edges="HunSt_2_1 HunSt_2_2"/>
    </person>
    <person id="pedestrian29" depart="118.00">
        <walk edges="GorSq_2_3 BynPl_1_3 BynPl_1_2 BynPl_1_1 TorPl_1_4 TorPl_1_3 TorPl_1_2 HunSt_2_1"/>
    </person>
    <person id="pedestrian30" depart="119.00">
        <walk edges="GowSt_2_2 TorPl_1_3 TorPl_1_2"/>
    </person>
    <person id="pedestrian31" depart="120.00">
        <walk edges="CheMe_1_1 TorPl_1_3 TorPl_1_4 BynPl_1_1"/>
    </person>
    <person id="pedestrian32" depart="120.00">
        <walk edges="MalSt_2_1 TorPl_2_1 TorPl_2_2 TorPl_2_3 TorPl_1_1"/>
    </person>
    <person id="pedestrian33" depart="121.00">
        <walk edges="HunSt_2_1"/>
    </person>
    <person id="pedestrian34" depart="122.00">
        <walk edges="TorPl_1_3 TorPl_1_2 HunSt_2_2"/>
    </person>
    <person id="pedestrian35" depart="129.00">
        <walk edges="TorPl_1_2 HunSt_1_1"/>
    </person>
    <person id="pedestrian36" depart="131.00">
        <walk edges="CheMe_1_1 TorPl_1_3 TorPl_1_4 BynPl_1_1 BynPl_1_2"/>
    </person>
    <person id="pedestrian37" depart="137.00">
        <walk edges="BynPl_2_1 BynPl_2_2 BynPl_2_3 TorPl_2_1 TorPl_2_2 TorPl_2_3 HunSt_1_2"/>
    </person>
    <person id="pedestrian38" depart="140.00">
        <walk edges="RidGa_2_1 TorPl_2_2 TorPl_1_4 MalPl_2_1"/>
    </person>
    <person id="pedestrian39" depart="141.00">
        <walk edges="GorSq_1_2 BynPl_1_3 BynPl_1_2 BynPl_1_1 TorPl_1_4 TorPl_2_2 TorPl_2_3"/>
    </person>
    <person id="pedestrian40" depart="153.00">
        <walk edges="MalPl_1_1 TorPl_2_1"/>
    </person>
    <person id="pedestrian41" depart="157.00">
        <walk edges="TorPl_1_1 TorPl_1_2 TorPl_1_3 TorPl_1_4 MalSt_1_1"/>
    </person>
    <person id="pedestrian42" depart="162.00">
        <walk edges="GorSq_2_3 BynPl_1_3 BynPl_2_1"/>
    </person>
    <person id="pedestrian43" depart="163.00">
        <walk edges="BynPl_1_3 BynPl_2_2 BynPl_2_3"/>
    </person>
    <person id="pedestrian44" depart="175.00">
        <walk edges="HunSt_2_1 HunSt_2_2"/>
    </person>
    <person id="pedestrian45" depart="178.00">
        <walk edges="GorSq_2_1 GorSq_2_2 BynPl_2_1 BynPl_2_2 BynPl_2_3 TorPl_2_1 TorPl_2_2 TorPl_2_3 HunSt_1_2"/>
    </person>
    <person id="pedestrian46" depart="179.00">
        <walk edges="CheMe_2_1 TorPl_1_3 TorPl_2_2"/>
    </person>
    <person id="pedestrian47" depart="184.00">
        <walk edges="HunSt_2_2 TorPl_1_2 TorPl_1_3 TorPl_1_4 BynPl_1_1 BynPl_2_2"/>
    </person>
    <person id="pedestrian48" depart="190.00">
        <walk edges="RidGa_1_1 TorPl_2_2 TorPl_1_4 BynPl_1_1 BynPl_1_2 BynPl_1_3 GorSq_2_3"/>
    </person>
    <person id="pedestrian49" depart="199.00">
        <walk edges="RidGa_2_1 TorPl_2_2 GowSt_2_1"/>
    </person>
    <person id="pedestrian50" depart="202.00">
        <walk edges="RidGa_2_1 TorPl_2_2 GowSt_1_2"/>
    </person>
    <person id="pedestrian51" depart="204.00">
        <walk edges="MalSt_1_1 TorPl_1_4 TorPl_1_3 TorPl_1_2 HunSt_2_2"/>
    </person>
    <person id="pedestrian52" depart="204.00">
        <walk edges="MalPl_2_1 TorPl_1_4 TorPl_1_3 TorPl_1_2 HunSt_1_1"/>
    </person>
    <person id="pedestrian53" depart="211.00">
        <walk edges="HunSt_1_1 TorPl_1_2 TorPl_1_3 TorPl_1_4 BynPl_1_1"/>
    </person>
    <person id="pedestrian54" depart="217.00">
        <walk edges="BynPl_2_2 BynPl_2_3 MalSt_2_1"/>
    </person>
    <person id="pedestrian55" depart="218.00">
        <walk edges="GorSq_2_3 BynPl_1_3 BynPl_1_2 BynPl_1_1 TorPl_1_4 TorPl_2_2"/>
    </person>
    <person id="pedestrian56" depart="219.00">
        <walk edges="TorPl_1_1 TorPl_1_2 TorPl_1_3 TorPl_1_4"/>
    </person>
    <person id="pedestrian57" depart="220.00">
        <walk edges="TorPl_1_3 TorPl_1_2 TorPl_2_4"/>
    </person>
    <person id="pedestrian58" depart="222.00">
        <walk edges="GowSt_1_2 TorPl_2_2 TorPl_2_3 HunSt_2_2"/>
    </person>
    <person id="pedestrian59" depart="224.00">
        <walk edges="TorPl_2_1 TorPl_2_2 TorPl_2_3 TorPl_1_1"/>
    </person>
    <person id="pedestrian60" depart="230.00">
        <walk edges="TorPl_2_1 MalPl_1_1"/>
    </person>
    <person id="pedestrian61" depart="237.00">
        <walk edges="GorSq_1_1 BynPl_1_3 BynPl_1_2 BynPl_1_1 TorPl_1_4 TorPl_1_3"/>
    </person>
    <person id="pedestrian62" depart="238.00">
        <walk edges="TorPl_2_2"/>
    </person>
    <person id="pedestrian63" depart="241.00">
        <walk edges="BynPl_1_1 MalSt_2_1"/>
    </person>
    <person id="pedestrian64" depart="241.00">
        <walk edges="TorPl_2_4 TorPl_1_2 TorPl_1_3 TorPl_1_4 BynPl_1_1 BynPl_1_2 BynPl_1_3 GorSq_1_2 GorSq_1_3"/>
    </person>
    <person id="pedestrian65" depart="243.00">
        <walk edges="GowSt_2_1 TorPl_1_4 BynPl_1_1 BynPl_1_2 BynPl_1_3 GorSq_1_2 GorSq_1_3"/>
    </person>
    <person id="pedestrian66" depart="250.00">
        <walk edges="GowSt_1_2 TorPl_2_1 MalSt_2_1"/>
    </person>
    <person id="pedestrian67" depart="257.00">
        <walk edges="GowSt_1_2 TorPl_1_4 BynPl_1_1 BynPl_1_2 BynPl_1_3 GorSq_2_3"/>
    </person>
    <person id="pedestrian68" depart="258.00">
        <walk edges="GorSq_1_2 BynPl_1_3 BynPl_1_2 BynPl_1_1 TorPl_1_4 TorPl_2_2 TorPl_2_3"/>
    </person>
    <person id="pedestrian69" depart="265.00">
        <walk edges="MalSt_1_1 TorPl_2_1 TorPl_2_2 RidGa_2_1"/>
    </person>
    <person id="pedestrian70" depart="265.00">
        <walk edges="GorSq_1_3 GorSq_1_2 BynPl_1_3"/>
    </person>
    <person id="pedestrian71" depart="265.00">
        <walk edges="GorSq_1_2 BynPl_1_3 BynPl_1_2 BynPl_1_1 TorPl_1_4 TorPl_2_2"/>
    </person>
    <person id="pedestrian72" depart="272.00">
        <walk edges="GorSq_2_3 BynPl_1_3 BynPl_1_2 BynPl_1_1 MalPl_1_1"/>
    </person>
    <person id="pedestrian73" depart="276.00">
        <walk edges="HunSt_2_2 TorPl_1_1"/>
    </person>
    <person id="pedestrian74" depart="281.00">
        <walk edges="TorPl_1_4 GowSt_1_1"/>
    </person>
    <person id="pedestrian75" depart="288.00">
        <walk edges="HunSt_2_2 TorPl_1_2 TorPl_1_3 TorPl_1_4 BynPl_2_3"/>
    </person>
    <person id="pedestrian76" depart="288.00">
        <walk edges="RidGa_1_1"/>
    </person>
    <person id="pedestrian77" depart="295.00">
        <walk edges="BynPl_2_1 BynPl_2_2 BynPl_1_1 MalPl_2_1"/>
    </person>
    <person id="pedestrian78" depart="302.00">
        <walk edges="TorPl_1_3 TorPl_1_2 TorPl_2_3 RidGa_1_1"/>
    </person>
    <person id="pedestrian79" depart="305.00">
        <walk edges="HunSt_2_1 TorPl_1_2 TorPl_1_3 TorPl_1_4 BynPl_1_1 BynPl_1_2 BynPl_1_3 GorSq_1_2 GorSq_1_3"/>
    </person>
    <person id="pedestrian80" depart="305.00">
        <walk edges="HunSt_2_1 HunSt_1_1"/>
    </person>
    <person id="pedestrian81" depart="326.00">
        <walk edges="BynPl_1_2 BynPl_1_1 TorPl_1_4 GowSt_1_2"/>
    </person>
    <person id="pedestrian82" depart="327.00">
        <walk edges="TorPl_2_1 TorPl_1_3 CheMe_1_1"/>
    </person>
    <person id="pedestrian83" depart="330.00">
        <walk edges="GorSq_1_2 BynPl_1_3 BynPl_1_2 BynPl_1_1 TorPl_1_4 TorPl_1_3 TorPl_1_2 TorPl_1_1"/>
    </person>
    <person id="pedestrian84" depart="334.00">
        <walk edges="BynPl_1_1 TorPl_1_4 TorPl_1_3 CheMe_1_1"/>
    </person>
    <person id="pedestrian85" depart="335.00">
        <walk edges="MalPl_1_1 BynPl_1_1"/>
    </person>
    <person id="pedestrian86" depart="347.00">
        <walk edges="MalSt_2_1 BynPl_2_3 BynPl_1_2"/>
    </person>
    <person id="pedestrian87" depart="351.00">
        <walk edges="BynPl_1_2 BynPl_1_3 GorSq_1_2"/>
    </person>
    <person id="pedestrian88" depart="360.00">
        <walk edges="CheMe_1_1 TorPl_1_3 TorPl_1_4 BynPl_1_1 BynPl_1_2 BynPl_1_3 GorSq_2_3"/>
    </person>
    <person id="pedestrian89" depart="364.00">
        <walk edges="GowSt_2_2 TorPl_1_4 BynPl_2_3"/>
    </person>
    <person id="pedestrian90" depart="366.00">
        <walk edges="BynPl_1_1 TorPl_1_4 TorPl_1_3 TorPl_1_2 TorPl_2_4"/>
    </person>
    <person id="pedestrian91" depart="367.00">
        <walk edges="GowSt_1_1 TorPl_1_3 TorPl_1_2 TorPl_2_4"/>
    </person>
    <person id="pedestrian92" depart="367.00">
        <walk edges="TorPl_1_1 TorPl_1_2 TorPl_1_3 TorPl_1_4 BynPl_1_1 BynPl_1_2 BynPl_1_3 GorSq_1_2 GorSq_1_3"/>
    </person>
    <person id="pedestrian93" depart="370.00">
        <walk edges="GowSt_1_2 TorPl_1_3 TorPl_1_2"/>
    </person>
    <person id="pedestrian94" depart="377.00">
        <walk edges="MalSt_2_1 BynPl_2_3 BynPl_2_2 BynPl_1_3 GorSq_1_2 GorSq_1_3"/>
    </person>
    <person id="pedestrian95" depart="378.00">
        <walk edges="GorSq_2_1 GorSq_2_2 BynPl_2_1 BynPl_2_2 BynPl_1_1"/>
    </person>
    <person id="pedestrian96" depart="381.00">
        <walk edges="BynPl_2_2 BynPl_1_1"/>
    </person>
    <person id="pedestrian97" depart="384.00">
        <walk edges="BynPl_2_3 BynPl_2_2 BynPl_1_3 GorSq_1_2 GorSq_1_3"/>
    </person>
    <person id="pedestrian98" depart="387.00">
        <walk edges="GowSt_2_1 TorPl_1_4 BynPl_1_1 BynPl_1_2"/>
    </person>
    <person id="pedestrian99" depart="389.00">
        <walk edges="GorSq_2_3 BynPl_1_3 BynPl_1_2 BynPl_1_1 TorPl_1_4 TorPl_1_3 TorPl_1_2 TorPl_2_4"/>
    </person>
    <person id="pedestrian100" depart="391.00">
        <walk edges="BynPl_2_2 BynPl_1_1 TorPl_1_4 TorPl_1_3 TorPl_1_2 HunSt_1_1"/>
    </person>
    <person id="pedestrian101" depart="392.00">
        <walk edges="GowSt_2_1 TorPl_1_4 MalPl_1_1"/>
    </person>
    <person id="pedestrian102" depart="399.00">
        <walk edges="GorSq_1_1 BynPl_1_3 BynPl_1_2 BynPl_1_1 TorPl_1_4 TorPl_2_2"/>
    </person>
    <person id="pedestrian103" depart="409.00">
        <walk edges="MalSt_2_1 BynPl_1_1"/>
    </person>
    <person id="pedestrian104" depart="410.00">
        <walk edges="GowSt_1_1 TorPl_1_4 BynPl_1_1 BynPl_1_2 BynPl_1_3 GorSq_1_2 GorSq_1_3"/>
    </person>
    <person id="pedestrian105" depart="416.00">
        <walk edges="TorPl_1_3 TorPl_1_4 BynPl_1_1 BynPl_2_2"/>
    </person>
    <person id="pedestrian106" depart="424.00">
        <walk edges="HunSt_2_1 HunSt_1_2"/>
    </person>
    <person id="pedestrian107" depart="428.00">
        <walk edges="TorPl_1_1 TorPl_2_3 TorPl_2_2 GowSt_1_2"/>
    </person>
    <person id="pedestrian108" depart="434.00">
        <walk edges="GorSq_1_2 BynPl_1_3 BynPl_1_2 BynPl_1_1 TorPl_1_4 TorPl_1_3 CheMe_1_1"/>
    </person>
    <person id="pedestrian109" depart="448.00">
        <walk edges="GowSt_2_1 TorPl_2_2 RidGa_1_1"/>
    </person>
    <person id="pedestrian110" depart="449.00">
        <walk edges="CheMe_2_1 TorPl_1_3 TorPl_1_4 MalSt_1_1"/>
    </person>
    <person id="pedestrian111" depart="456.00">
        <walk edges="BynPl_2_3 TorPl_1_4"/>
    </person>
    <person id="pedestrian112" depart="463.00">
        <walk edges="CheMe_1_1 TorPl_1_3 GowSt_2_2"/>
    </person>
    <person id="pedestrian113" depart="463.00">
        <walk edges="GorSq_2_3 BynPl_1_3 BynPl_1_2"/>
    </person>
    <person id="pedestrian114" depart="464.00">
        <walk edges="RidGa_2_1 TorPl_2_3 HunSt_2_2"/>
    </person>
    <person id="pedestrian115" depart="465.00">
        <walk edges="GorSq_1_3 GorSq_1_2"/>
    </person>
    <person id="pedestrian116" depart="472.00">
        <walk edges="GowSt_2_1 TorPl_2_2 RidGa_2_1"/>
    </person>
    <person id="pedestrian117" depart="475.00">
        <walk edges="TorPl_2_3 TorPl_2_2 TorPl_1_4 BynPl_1_1 BynPl_1_2 BynPl_1_3 GorSq_1_2"/>
    </person>
    <person id="pedestrian118" depart="480.00">
        <walk edges="MalSt_2_1 TorPl_1_4"/>
    </person>
    <person id="pedestrian119" depart="484.00">
        <walk edges="TorPl_1_3 TorPl_1_4 MalSt_1_1"/>
    </person>
    <person id="pedestrian120" depart="487.00">
        <walk edges="TorPl_2_1 MalPl_2_1"/>
    </person>
    <person id="pedestrian121" depart="496.00">
        <walk edges="GowSt_1_1 TorPl_1_4 BynPl_1_1 BynPl_1_2 BynPl_1_3 GorSq_1_2 GorSq_1_3"/>
    </person>
    <person id="pedestrian122" depart="507.00">
        <walk edges="TorPl_1_4 BynPl_1_1 BynPl_1_2 BynPl_1_3"/>
    </person>
    <person id="pedestrian123" depart="508.00">
        <walk edges="HunSt_2_1 TorPl_1_2 TorPl_1_3 TorPl_1_4"/>
    </person>
    <person id="pedestrian124" depart="509.00">
        <walk edges="GowSt_1_2 TorPl_1_4 BynPl_1_1 BynPl_1_2 BynPl_1_3 GorSq_1_1"/>
    </person>
    <person id="pedestrian125" depart="511.00">
        <walk edges="GorSq_2_3 BynPl_1_3 BynPl_1_2 BynPl_1_1 TorPl_1_4 GowSt_1_1"/>
    </person>
    <person id="pedestrian126" depart="515.00">
        <walk edges="TorPl_2_3 HunSt_1_1"/>
    </person>
    <person id="pedestrian127" depart="520.00">
        <walk edges="GorSq_2_3 BynPl_1_3 BynPl_1_2 BynPl_1_1 MalPl_2_1"/>
    </person>
    <person id="pedestrian128" depart="520.00">
        <walk edges="CheMe_2_1"/>
    </person>
    <person id="pedestrian129" depart="529.00">
        <walk edges="TorPl_1_4 TorPl_2_2 TorPl_2_3 HunSt_1_2"/>
    </person>
    <person id="pedestrian130" depart="530.00">
        <walk edges="BynPl_1_2 BynPl_1_1 TorPl_1_4 GowSt_1_2"/>
    </person>
    <person id="pedestrian131" depart="544.00">
        <walk edges="GorSq_1_1 BynPl_1_3 BynPl_1_2 BynPl_1_1 TorPl_1_4 GowSt_2_1"/>
    </person>
    <person id="pedestrian132" depart="545.00">
        <walk edges="MalPl_2_1 BynPl_1_1 BynPl_1_2 BynPl_1_3 GorSq_1_2 GorSq_1_3"/>
    </person>
    <person id="pedestrian133" depart="548.00">
        <walk edges="MalSt_2_1 TorPl_2_1 TorPl_2_2 TorPl_2_3 TorPl_2_4"/>
    </person>
    <person id="pedestrian134" depart="549.00">
        <walk edges="BynPl_2_3 TorPl_1_4 TorPl_1_3 TorPl_1_2 HunSt_1_1"/>
    </person>
    <person id="pedestrian135" depart="549.00">
        <walk edges="GorSq_2_3 BynPl_1_3 BynPl_1_2 BynPl_1_1 TorPl_1_4 TorPl_2_2 TorPl_2_3"/>
    </person>
    <person id="pedestrian136" depart="549.00">
        <walk edges="GorSq_1_3 GorSq_1_2 BynPl_1_3 BynPl_1_2 BynPl_1_1 TorPl_1_4 TorPl_1_3 TorPl_1_2"/>
    </person>
    <person id="pedestrian137" depart="559.00">
        <walk edges="MalPl_1_1 BynPl_1_1 BynPl_2_2 BynPl_2_1 GorSq_2_2"/>
    </person>
    <person id="pedestrian138" depart="565.00">
        <walk edges="BynPl_2_2 BynPl_2_3 TorPl_2_1 TorPl_2_2"/>
    </person>
    <person id="pedestrian139" depart="572.00">
        <walk edges="TorPl_2_4 TorPl_2_3 TorPl_2_2 TorPl_2_1 BynPl_2_3 BynPl_2_2 BynPl_2_1 GorSq_2_2 GorSq_2_1"/>
    </person>
    <person id="pedestrian140" depart="575.00">
        <walk edges="HunSt_2_1 TorPl_2_3 TorPl_2_2 GowSt_1_2"/>
    </person>
    <person id="pedestrian141" depart="577.00">
        <walk edges="BynPl_1_1 TorPl_1_4 TorPl_2_2 TorPl_2_3"/>
    </person>
    <person id="pedestrian142" depart="584.00">
        <walk edges="BynPl_2_1 BynPl_2_2 BynPl_1_1 TorPl_1_4 TorPl_1_3 TorPl_1_2"/>
    </person>
    <person id="pedestrian143" depart="585.00">
        <walk edges="GowSt_2_1 TorPl_1_4 BynPl_1_1 BynPl_1_2 BynPl_1_3 GorSq_1_2 GorSq_1_3"/>
    </person>
    <person id="pedestrian144" depart="587.00">
        <walk edges="BynPl_1_3 BynPl_1_2 BynPl_1_1 TorPl_1_4 TorPl_2_2 RidGa_2_1"/>
    </person>
    <person id="pedestrian145" depart="591.00">
        <walk edges="MalPl_2_1 TorPl_1_4 TorPl_2_2 RidGa_1_1"/>
    </person>
    <person id="pedestrian146" depart="592.00">
        <walk edges="GorSq_1_2 BynPl_1_3 BynPl_1_2 BynPl_1_1 TorPl_1_4 GowSt_2_2"/>
    </person>
    <person id="pedestrian147" depart="600.00">
        <walk edges="GorSq_2_3 GorSq_1_2"/>
    </person>
    <person id="pedestrian148" depart="604.00">
        <walk edges="GorSq_1_1 BynPl_1_3 BynPl_2_2 BynPl_2_3 MalSt_2_1"/>
    </person>
    <person id="pedestrian149" depart="605.00">
        <walk edges="RidGa_2_1 TorPl_2_2 TorPl_2_1 MalSt_2_1"/>
    </person>
    <person id="pedestrian150" depart="606.00">
        <walk edges="HunSt_1_1 TorPl_1_2 CheMe_2_1"/>
    </person>
    <person id="pedestrian151" depart="608.00">
        <walk edges="BynPl_2_1 GorSq_2_2"/>
    </person>
    <person id="pedestrian152" depart="608.00">
        <walk edges="TorPl_1_4 BynPl_2_3"/>
    </person>
    <person id="pedestrian153" depart="614.00">
        <walk edges="GowSt_2_2 TorPl_1_4 BynPl_1_1 BynPl_1_2 BynPl_1_3"/>
    </person>
    <person id="pedestrian154" depart="617.00">
        <walk edges="TorPl_2_1 TorPl_1_3 CheMe_2_1"/>
    </person>
    <person id="pedestrian155" depart="617.00">
        <walk edges="GorSq_1_2 BynPl_1_3 BynPl_2_2"/>
    </person>
    <person id="pedestrian156" depart="618.00">
        <walk edges="MalSt_1_1 TorPl_1_4 TorPl_1_3 TorPl_1_2 HunSt_1_1"/>
    </person>
    <person id="pedestrian157" depart="629.00">
        <walk edges="TorPl_1_2 TorPl_1_3 TorPl_1_4 BynPl_2_3"/>
    </person>
    <person id="pedestrian158" depart="631.00">
        <walk edges="GorSq_1_2 BynPl_1_3 BynPl_1_2 BynPl_1_1 TorPl_1_4 TorPl_2_2 RidGa_2_1"/>
    </person>
    <person id="pedestrian159" depart="640.00">
        <walk edges="TorPl_2_3 TorPl_2_2 TorPl_1_4 BynPl_1_1"/>
    </person>
    <person id="pedestrian160" depart="653.00">
        <walk edges="GowSt_1_1 TorPl_2_2"/>
    </person>
    <person id="pedestrian161" depart="656.00">
        <walk edges="GorSq_1_2 BynPl_1_3 BynPl_1_2 BynPl_1_1 MalPl_2_1"/>
    </person>
    <person id="pedestrian162" depart="657.00">
        <walk edges="GorSq_1_2 BynPl_1_3 BynPl_1_2 BynPl_1_1 TorPl_1_4 GowSt_2_1"/>
    </person>
    <person id="pedestrian163" depart="661.00">
        <walk edges="GowSt_2_2 TorPl_2_2 RidGa_1_1"/>
    </person>
    <person id="pedestrian164" depart="678.00">
        <walk edges="BynPl_2_1"/>
    </person>
    <person id="pedestrian165" depart="692.00">
        <walk edges="BynPl_1_1 TorPl_1_4 TorPl_2_2 RidGa_2_1"/>
    </person>
    <person id="pedestrian166" depart="697.00">
        <walk edges="GorSq_1_2 BynPl_1_3 BynPl_1_2 BynPl_1_1 MalPl_1_1"/>
    </person>
    <person id="pedestrian167" depart="701.00">
        <walk edges="RidGa_2_1"/>
    </person>
    <person id="pedestrian168" depart="706.00">
        <walk edges="HunSt_1_2 TorPl_2_3 TorPl_2_2 TorPl_2_1 BynPl_2_3 BynPl_2_2 BynPl_2_1"/>
    </person>
    <person id="pedestrian169" depart="707.00">
        <walk edges="HunSt_2_2 TorPl_1_2 TorPl_1_3 TorPl_1_4 BynPl_1_1 BynPl_2_2 BynPl_2_1 GorSq_2_2"/>
    </person>
    <person id="pedestrian170" depart="714.00">
        <walk edges="HunSt_2_2 TorPl_1_2 TorPl_1_3 TorPl_1_4 BynPl_1_1 BynPl_1_2 BynPl_1_3 GorSq_1_2"/>
    </person>
    <person id="pedestrian171" depart="723.00">
        <walk edges="MalPl_1_1 BynPl_1_1 BynPl_2_2 BynPl_2_1"/>
    </person>
    <person id="pedestrian172" depart="724.00">
        <walk edges="TorPl_1_4 TorPl_1_3 TorPl_1_2 HunSt_2_1"/>
    </person>
    <person id="pedestrian173" depart="733.00">
        <walk edges="TorPl_1_2 HunSt_1_1"/>
    </person>
    <person id="pedestrian174" depart="734.00">
        <walk edges="RidGa_1_1 TorPl_2_2 TorPl_1_4 BynPl_1_1"/>
    </person>
    <person id="pedestrian175" depart="735.00">
        <walk edges="MalSt_1_1 TorPl_2_1 TorPl_2_2 RidGa_1_1"/>
    </person>
    <person id="pedestrian176" depart="740.00">
        <walk edges="RidGa_1_1 TorPl_2_2 TorPl_1_4 BynPl_1_1 BynPl_1_2 BynPl_1_3 GorSq_2_3"/>
    </person>
    <person id="pedestrian177" depart="748.00">
        <walk edges="GorSq_1_1 BynPl_1_3 BynPl_1_2 BynPl_1_1 TorPl_1_4 TorPl_1_3 TorPl_1_2 HunSt_1_1"/>
    </person>
    <person id="pedestrian178" depart="763.00">
        <walk edges="TorPl_1_4 GowSt_1_1"/>
    </person>
    <person id="pedestrian179" depart="766.00">
        <walk edges="BynPl_1_3 BynPl_2_1"/>
    </person>
    <person id="pedestrian180" depart="771.00">
        <walk edges="MalPl_1_1 TorPl_1_4"/>
    </person>
    <person id="pedestrian181" depart="776.00">
        <walk edges="TorPl_1_3 TorPl_1_4 BynPl_2_3"/>
    </person>
    <person id="pedestrian182" depart="776.00">
        <walk edges="GowSt_2_2 TorPl_1_3 CheMe_1_1"/>
    </person>
    <person id="pedestrian183" depart="787.00">
        <walk edges="GowSt_2_1 GowSt_1_1"/>
    </person>
    <person id="pedestrian184" depart="788.00">
        <walk edges="HunSt_2_1 TorPl_1_2 TorPl_1_3 TorPl_1_4 BynPl_1_1 BynPl_1_2 BynPl_1_3 GorSq_2_3"/>
    </person>
    <person id="pedestrian185" depart="792.00">
        <walk edges="TorPl_2_4 TorPl_1_2 TorPl_1_3 TorPl_1_4"/>
    </person>
    <person id="pedestrian186" depart="801.00">
        <walk edges="MalPl_1_1 MalPl_2_1"/>
    </person>
    <person id="pedestrian187" depart="804.00">
        <walk edges="BynPl_1_2 BynPl_1_1 TorPl_1_4 TorPl_1_3 TorPl_1_2 TorPl_2_4"/>
    </person>
    <person id="pedestrian188" depart="819.00">
        <walk edges="MalPl_2_1 TorPl_1_4 TorPl_1_3 TorPl_1_2 HunSt_2_1"/>
    </person>
    <person id="pedestrian189" depart="823.00">
        <walk edges="GowSt_1_1 TorPl_1_4 MalPl_1_1"/>
    </person>
    <person id="pedestrian190" depart="823.00">
        <walk edges="GowSt_2_1 TorPl_1_4 MalPl_2_1"/>
    </person>
    <person id="pedestrian191" depart="827.00">
        <walk edges="GorSq_2_1 GorSq_2_2 BynPl_2_1 BynPl_2_2 BynPl_1_1 TorPl_1_4 TorPl_1_3 TorPl_1_2 TorPl_1_1"/>
    </person>
    <person id="pedestrian192" depart="836.00">
        <walk edges="TorPl_2_2 RidGa_2_1"/>
    </person>
    <person id="pedestrian193" depart="836.00">
        <walk edges="GorSq_1_3 GorSq_1_2 BynPl_1_3 BynPl_1_2 BynPl_1_1 TorPl_1_4 TorPl_1_3 TorPl_1_2 TorPl_2_4"/>
    </person>
    <person id="pedestrian194" depart="855.00">
        <walk edges="MalSt_2_1 TorPl_2_1 TorPl_1_3 CheMe_1_1"/>
    </person>
    <person id="pedestrian195" depart="856.00">
        <walk edges="TorPl_1_3 TorPl_1_4 BynPl_2_3"/>
    </person>
    <person id="pedestrian196" depart="859.00">
        <walk edges="HunSt_2_2 TorPl_1_2 TorPl_1_3 TorPl_1_4 BynPl_1_1 BynPl_1_2 BynPl_1_3 GorSq_1_1"/>
    </person>
    <person id="pedestrian197" depart="861.00">
        <walk edges="HunSt_1_2 TorPl_1_1"/>
    </person>
    <person id="pedestrian198" depart="865.00">
        <walk edges="TorPl_1_2 TorPl_1_3 TorPl_1_4 BynPl_1_1 BynPl_1_2 BynPl_1_3 GorSq_2_3"/>
    </person>
    <person id="pedestrian199" depart="875.00">
        <walk edges="TorPl_2_1 TorPl_1_3"/>
    </person>
    <person id="pedestrian200" depart="881.00">
        <walk edges="HunSt_2_2 TorPl_2_4"/>
    </person>
    <person id="pedestrian201" depart="897.00">
        <walk edges="GorSq_2_2 GorSq_1_2 BynPl_1_3"/>
    </person>
    <person id="pedestrian202" depart="901.00">
        <walk edges="GorSq_2_1 GorSq_2_2 BynPl_2_1 BynPl_2_2 BynPl_2_3 TorPl_2_1 TorPl_2_2 RidGa_2_1"/>
    </person>
    <person id="pedestrian203" depart="902.00">
        <walk edges="HunSt_1_2 HunSt_2_1"/>
    </person>
    <person id="pedestrian204" depart="904.00">
        <walk edges="GowSt_2_2 TorPl_1_4"/>
    </person>
    <person id="pedestrian205" depart="904.00">
        <walk edges="HunSt_2_2 TorPl_1_2 TorPl_1_3 TorPl_1_4 BynPl_1_1 BynPl_1_2 BynPl_1_3 GorSq_1_1"/>
    </person>
    <person id="pedestrian206" depart="919.00">
        <walk edges="GorSq_2_2 BynPl_2_1 BynPl_2_2 BynPl_2_3 TorPl_2_1 TorPl_2_2 TorPl_2_3 TorPl_2_4"/>
    </person>
    <person id="pedestrian207" depart="927.00">
        <walk edges="BynPl_2_2 BynPl_1_1 TorPl_1_4 TorPl_1_3 TorPl_1_2"/>
    </person>
    <person id="pedestrian208" depart="933.00">
        <walk edges="TorPl_1_1 TorPl_2_4"/>
    </person>
    <person id="pedestrian209" depart="954.00">
        <walk edges="CheMe_2_1 TorPl_1_3 GowSt_1_2"/>
    </person>
    <person id="pedestrian210" depart="956.00">
        <walk edges="GowSt_2_2 TorPl_1_4 BynPl_1_1 BynPl_1_2"/>
    </person>
    <person id="pedestrian211" depart="962.00">
        <walk edges="GorSq_2_1 GorSq_2_2 BynPl_2_1 BynPl_2_2 BynPl_1_1 TorPl_1_4 TorPl_1_3 TorPl_1_2 HunSt_2_2"/>
    </person>
    <person id="pedestrian212" depart="974.00">
        <walk edges="BynPl_2_3 MalPl_1_1"/>
    </person>
    <person id="pedestrian213" depart="981.00">
        <walk edges="GorSq_1_2 GorSq_2_2"/>
    </person>
    <person id="pedestrian214" depart="986.00">
        <walk edges="MalPl_2_1 BynPl_2_3"/>
    </person>
    <person id="pedestrian215" depart="990.00">
        <walk edges="TorPl_2_4 TorPl_2_3 TorPl_2_2 TorPl_2_1 BynPl_2_3 BynPl_2_2"/>
    </person>
    <person id="pedestrian216" depart="994.00">
        <walk edges="GowSt_2_2"/>
    </person>
    <person id="pedestrian217" depart="996.00">
        <walk edges="BynPl_1_2 BynPl_1_1 TorPl_1_4 TorPl_1_3 CheMe_1_1"/>
    </person>
    <person id="pedestrian218" depart="1001.00">
        <walk edges="BynPl_1_3 BynPl_1_2 BynPl_1_1 TorPl_1_4 TorPl_1_3 TorPl_1_2 TorPl_2_4"/>
    </person>
    <person id="pedestrian219" depart="1002.00">
        <walk edges="CheMe_1_1 TorPl_1_3 TorPl_1_4 MalPl_2_1"/>
    </person>
    <person id="pedestrian220" depart="1002.00">
        <walk edges="TorPl_2_3 TorPl_2_4"/>
    </person>
    <person id="pedestrian221" depart="1003.00">
        <walk edges="RidGa_1_1 TorPl_2_2 TorPl_2_1 BynPl_2_3 BynPl_2_2 BynPl_2_1"/>