<?xml version="1.0" encoding="UTF-8"?>

<!-- generated on 2025-11-24 14:59:40.221387 by Eclipse SUMO randomTrips.py UNKNOWN
<configuration>
    <net-file value="../networks/demo/main.net.xml"/>
    <output-trip-file value="../routes/demo/11/pedestrian.trips.xml"/>
    <route-file value="../routes/demo/11/pedestrian.rou.xml"/>
    <pedestrians value="True"/>
    <prefix value="pedestrian"/>
    <seed value="11"/>
    <period value="5.0"/>
    <binomial value="100"/>
</configuration>
-->

<!-- generated on 2025-11-24T14:59:40.209544+00:00 by Eclipse SUMO duarouter 1.25.0
<duarouterConfiguration xmlns:xsi="http://www.w3.org/2001/XMLSchema-instance" xsi:noNamespaceSchemaLocation="http://sumo.dlr.de/xsd/duarouterConfiguration.xsd">

    <input>
        <net-file value="../networks/demo/main.net.xml"/>
        <route-files value="../routes/demo/11/pedestrian.trips.xml"/>
    </input>

    <output>
        <output-file value="../routes/demo/11/pedestrian.rou.xml"/>
        <alternatives-output value="NUL"/>
    </output>

    <time>
        <begin value="0"/>
        <end value="3600.0"/>
    </time>

    <report>
        <no-warnings value="true"/>
        <ignore-errors value="true"/>
        <no-step-log value="true"/>
    </report>

</duarouterConfiguration>
-->

<routes xmlns:xsi="http://www.w3.org/2001/XMLSchema-instance" xsi:noNamespaceSchemaLocation="http://sumo.dlr.de/xsd/routes_file.xsd">
    <person id="pedestrian0" depart="0.00">
        <walk edges="CheMe_2_1 TorPl_1_3 TorPl_2_1"/>
    </person>
    <person id="pedestrian1" depart="8.00">
        <walk edges="TorPl_1_2 TorPl_1_3"/>
    </person>
    <person id="pedestrian2" depart="10.00">
        <walk edges="GorSq_1_1 GorSq_1_2 GorSq_1_3"/>
    </person>
    <person id="pedestrian3" depart="13.00">
        <walk edges="HunSt_1_2 TorPl_2_3 TorPl_2_2 GowSt_1_1"/>
    </person>
    <person id="pedestrian4" depart="21.00">
        <walk edges="BynPl_1_3 BynPl_1_2 BynPl_1_1 TorPl_1_4 TorPl_1_3 TorPl_1_2 TorPl_1_1"/>
    </person>
    <person id="pedestrian5" depart="23.00">
        <walk edges="GowSt_2_2 TorPl_1_4 BynPl_1_1 BynPl_1_2 BynPl_1_3 GorSq_1_2"/>
    </person>
    <person id="pedestrian6" depart="29.00">
        <walk edges="BynPl_1_1"/>
    </person>
    <person id="pedestrian7" depart="32.00">
        <walk edges="HunSt_1_2 TorPl_2_3 TorPl_2_2 TorPl_2_1 BynPl_2_3 BynPl_2_2 BynPl_2_1"/>
    </person>
    <person id="pedestrian8" depart="36.00">
        <walk edges="TorPl_1_1 TorPl_1_2 TorPl_1_3 TorPl_1_4 BynPl_1_1 BynPl_1_2 BynPl_1_3"/>
    </person>
    <person id="pedestrian9" depart="36.00">
        <walk edges="TorPl_2_3 RidGa_2_1"/>
    </person>
    <person id="pedestrian10" depart="43.00">
        <walk edges="BynPl_1_3 BynPl_1_2"/>
    </person>
    <person id="pedestrian11" depart="51.00">
        <walk edges="CheMe_2_1 TorPl_1_3 TorPl_1_4 BynPl_1_1 BynPl_2_2 BynPl_2_1"/>
    </person>
    <person id="pedestrian12" depart="65.00">
        <walk edges="MalPl_2_1 TorPl_1_4"/>
    </person>
    <person id="pedestrian13" depart="65.00">
        <walk edges="BynPl_2_2 BynPl_2_1"/>
    </person>
    <person id="pedestrian14" depart="71.00">
        <walk edges="CheMe_1_1 TorPl_1_3 TorPl_2_2"/>
    </person>
    <person id="pedestrian15" depart="73.00">
        <walk edges="HunSt_2_1 TorPl_2_3 TorPl_2_2 GowSt_1_2"/>
    </person>
    <person id="pedestrian16" depart="78.00">
        <walk edges="GowSt_1_2 TorPl_2_2 TorPl_2_3 TorPl_2_4"/>
    </person>
    <person id="pedestrian17" depart="83.00">
        <walk edges="TorPl_1_3 TorPl_1_4"/>
    </person>
    <person id="pedestrian18" depart="86.00">
        <walk edges="MalSt_2_1"/>
    </person>
    <person id="pedestrian19" depart="90.00">
        <walk edges="BynPl_2_2 BynPl_2_3 TorPl_2_1"/>
    </person>
    <person id="pedestrian20" depart="101.00">
        <walk edges="GorSq_1_2 BynPl_1_3 BynPl_2_2"/>
    </person>
    <person id="pedestrian21" depart="107.00">
        <walk edges="GorSq_1_2"/>
    </person>
    <person id="pedestrian22" depart="114.00">
        <walk edges="TorPl_2_4 HunSt_2_2"/>
    </person>
    <person id="pedestrian23" depart="118.00">
        <walk edges="HunSt_2_2 TorPl_1_2 TorPl_1_3 TorPl_1_4 BynPl_1_1 BynPl_1_2 BynPl_1_3"/>
    </person>
    <person id="pedestrian24" depart="122.00">
        <walk edges="TorPl_1_3 GowSt_1_2"/>
    </person>
    <person id="pedestrian25" depart="125.00">
        <walk edges="HunSt_1_1 TorPl_2_4"/>
    </person>
    <person id="pedestrian26" depart="131.00">
        <walk edges="BynPl_2_2 BynPl_2_3 TorPl_2_1 TorPl_2_2 TorPl_2_3"/>
    </person>
    <person id="pedestrian27" depart="131.00">
        <walk edges="GorSq_1_2 BynPl_1_3 BynPl_1_2"/>
    </person>
    <person id="pedestrian28" depart="142.00">
        <walk edges="TorPl_2_4 TorPl_1_2 TorPl_1_3 TorPl_1_4"/>
    </person>
    <person id="pedestrian29" depart="146.00">
        <walk edges="GorSq_1_2 BynPl_1_3 BynPl_1_2 BynPl_1_1 TorPl_1_4 TorPl_1_3 TorPl_1_2 HunSt_2_1"/>
    </person>
    <person id="pedestrian30" depart="147.00">
        <walk edges="GorSq_2_2 BynPl_2_1 BynPl_2_2"/>
    </person>
    <person id="pedestrian31" depart="149.00">
        <walk edges="MalSt_2_1"/>
    </person>
    <person id="pedestrian32" depart="150.00">
        <walk edges="HunSt_1_1 TorPl_1_2 TorPl_1_3 TorPl_1_4 BynPl_1_1 BynPl_2_2 BynPl_2_1 GorSq_2_2"/>
    </person>
    <person id="pedestrian33" depart="153.00">
        <walk edges="CheMe_2_1 TorPl_1_3 TorPl_1_4 BynPl_1_1 BynPl_1_2 BynPl_1_3 GorSq_2_3"/>
    </person>
    <person id="pedestrian34" depart="160.00">
        <walk edges="GorSq_2_1 GorSq_2_2 BynPl_2_1 BynPl_2_2 BynPl_2_3 TorPl_2_1 TorPl_2_2"/>
    </person>
    <person id="pedestrian35" depart="167.00">
        <walk edges="BynPl_1_2 BynPl_1_3"/>
    </person>
    <person id="pedestrian36" depart="167.00">
        <walk edges="GorSq_1_1 BynPl_1_3 BynPl_2_2"/>
    </person>
    <person id="pedestrian37" depart="172.00">
        <walk edges="MalPl_1_1 BynPl_1_1 BynPl_1_2 BynPl_1_3 GorSq_1_2"/>
    </person>
    <person id="pedestrian38" depart="174.00">
        <walk edges="BynPl_2_2 BynPl_2_1"/>
    </person>
    <person id="pedestrian39" depart="175.00">
        <walk edges="MalPl_1_1 MalSt_2_1"/>
    </person>
    <person id="pedestrian40" depart="182.00">
        <walk edges="TorPl_2_4 TorPl_2_3 TorPl_2_2"/>
    </person>
    <person id="pedestrian41" depart="188.00">
        <walk edges="TorPl_1_4 BynPl_1_1 BynPl_1_2 BynPl_1_3 GorSq_1_2 GorSq_1_3"/>
    </person>
    <person id="pedestrian42" depart="189.00">
        <walk edges="GorSq_2_1 GorSq_2_2"/>
    </person>
    <person id="pedestrian43" depart="190.00">
        <walk edges="MalSt_1_1 TorPl_1_4 GowSt_2_2"/>
    </person>
    <person id="pedestrian44" depart="204.00">
        <walk edges="MalSt_2_1 TorPl_2_1 TorPl_2_2 TorPl_2_3 HunSt_2_2"/>
    </person>
    <person id="pedestrian45" depart="206.00">
        <walk edges="CheMe_2_1 TorPl_1_2 HunSt_2_1"/>
    </person>
    <person id="pedestrian46" depart="210.00">
        <walk edges="HunSt_2_1 TorPl_2_3 RidGa_1_1"/>
    </person>
    <person id="pedestrian47" depart="211.00">
        <walk edges="BynPl_2_2 BynPl_1_1 MalPl_1_1"/>
    </person>
    <person id="pedestrian48" depart="215.00">
        <walk edges="MalPl_2_1 TorPl_1_4 TorPl_1_3 TorPl_1_2 TorPl_1_1"/>
    </person>
    <person id="pedestrian49" depart="220.00">
        <walk edges="MalSt_1_1 BynPl_2_3 BynPl_2_2 BynPl_1_3 GorSq_1_2"/>
    </person>
    <person id="pedestrian50" depart="222.00">
        <walk edges="TorPl_2_3 TorPl_2_2 TorPl_2_1 BynPl_2_3 BynPl_2_2 BynPl_2_1"/>
    </person>
    <person id="pedestrian51" depart="229.00">
        <walk edges="HunSt_2_1 TorPl_1_2 TorPl_1_3 TorPl_1_4 MalPl_1_1"/>
    </person>
    <person id="pedestrian52" depart="232.00">
        <walk edges="TorPl_2_4 TorPl_2_3 TorPl_2_2 TorPl_2_1 BynPl_2_3 BynPl_2_2 BynPl_2_1"/>
    </person>
    <person id="pedestrian53" depart="233.00">
        <walk edges="TorPl_1_2 TorPl_1_3 TorPl_1_4 BynPl_1_1 BynPl_2_2 BynPl_2_1 GorSq_2_2"/>
    </person>
    <person id="pedestrian54" depart="233.00">
        <walk edges="BynPl_2_2 BynPl_1_1 TorPl_1_4 TorPl_1_3 TorPl_1_2"/>
    </person>
    <person id="pedestrian55" depart="239.00">
        <walk edges="HunSt_1_2 TorPl_2_3 TorPl_2_2 TorPl_1_4 BynPl_1_1 BynPl_1_2 BynPl_1_3 GorSq_1_2 GorSq_1_3"/>
    </person>
    <person id="pedestrian56" depart="263.00">
        <walk edges="GorSq_1_3 GorSq_1_2 BynPl_1_3 BynPl_1_2 BynPl_1_1 TorPl_1_4 GowSt_1_2"/>
    </person>
    <person id="pedestrian57" depart="269.00">
        <walk edges="BynPl_2_2 BynPl_2_1 GorSq_2_2"/>
    </person>
    <person id="pedestrian58" depart="277.00">
        <walk edges="TorPl_1_1 HunSt_1_1"/>
    </person>
    <person id="pedestrian59" depart="282.00">
        <walk edges="HunSt_2_1 HunSt_1_2"/>
    </person>
    <person id="pedestrian60" depart="291.00">
        <walk edges="TorPl_1_4 MalPl_1_1"/>
    </person>
    <person id="pedestrian61" depart="294.00">
        <walk edges="GorSq_1_3 GorSq_1_2 BynPl_1_3 BynPl_1_2 BynPl_1_1 TorPl_1_4"/>
    </person>
    <person id="pedestrian62" depart="302.00">
        <walk edges="RidGa_1_1 TorPl_2_2 TorPl_1_4 BynPl_1_1 BynPl_1_2"/>
    </person>
    <person id="pedestrian63" depart="320.00">
        <walk edges="GorSq_1_1"/>
    </person>
    <person id="pedestrian64" depart="328.00">
        <walk edges="HunSt_1_2 TorPl_1_2 CheMe_1_1"/>
    </person>
    <person id="pedestrian65" depart="333.00">
        <walk edges="GowSt_2_1 TorPl_2_1 BynPl_2_3 BynPl_2_2 BynPl_2_1 GorSq_2_2"/>
    </person>
    <person id="pedestrian66" depart="334.00">
        <walk edges="HunSt_2_1 TorPl_1_2 TorPl_1_3 TorPl_1_4"/>
    </person>
    <person id="pedestrian67" depart="339.00">
        <walk edges="TorPl_1_4 MalPl_1_1"/>
    </person>
    <person id="pedestrian68" depart="346.00">
        <walk edges="BynPl_2_2 BynPl_2_3 TorPl_2_1 TorPl_2_2 TorPl_2_3"/>
    </person>
    <person id="pedestrian69" depart="350.00">
        <walk edges="GorSq_1_2 BynPl_1_3 BynPl_1_2 BynPl_1_1 TorPl_1_4 TorPl_1_3 TorPl_1_2 HunSt_1_1"/>
    </person>
    <person id="pedestrian70" depart="350.00">
        <walk edges="BynPl_2_3 TorPl_2_1 TorPl_2_2"/>
    </person>
    <person id="pedestrian71" depart="367.00">
        <walk edges="BynPl_1_1 BynPl_2_2 BynPl_2_1"/>
    </person>
    <person id="pedestrian72" depart="386.00">
        <walk edges="HunSt_2_1 TorPl_1_2 CheMe_1_1"/>
    </person>
    <person id="pedestrian73" depart="387.00">
        <walk edges="TorPl_2_1 MalSt_1_1"/>
    </person>
    <person id="pedestrian74" depart="400.00">
        <walk edges="TorPl_1_1 TorPl_1_2 TorPl_1_3 TorPl_1_4 BynPl_1_1 BynPl_1_2 BynPl_1_3 GorSq_1_1"/>
    </person>
    <person id="pedestrian75" depart="402.00">
        <walk edges="TorPl_1_4 BynPl_1_1 BynPl_1_2 BynPl_1_3 GorSq_1_1"/>
    </person>
    <person id="pedestrian76" depart="404.00">
        <walk edges="TorPl_1_1 TorPl_1_2 TorPl_1_3 TorPl_1_4 BynPl_1_1 BynPl_1_2 BynPl_1_3"/>
    </person>
    <person id="pedestrian77" depart="419.00">
        <walk edges="BynPl_2_2 BynPl_1_1 TorPl_1_4"/>
    </person>
    <person id="pedestrian78" depart="425.00">
        <walk edges="BynPl_1_3 BynPl_1_2 BynPl_1_1 TorPl_1_4 TorPl_2_2 RidGa_2_1"/>
    </person>
    <person id="pedestrian79" depart="427.00">
        <walk edges="GowSt_1_2 TorPl_2_2 TorPl_2_3"/>
    </person>
    <person id="pedestrian80" depart="434.00">
        <walk edges="TorPl_1_3 TorPl_1_2"/>
    </person>
    <person id="pedestrian81" depart="434.00">
        <walk edges="MalSt_1_1 TorPl_2_1"/>
    </person>
    <person id="pedestrian82" depart="436.00">
        <walk edges="BynPl_1_1 MalPl_1_1"/>
    </person>
    <person id="pedestrian83" depart="458.00">
        <walk edges="BynPl_1_3 BynPl_2_2 BynPl_2_3 MalSt_1_1"/>
    </person>
    <person id="pedestrian84" depart="458.00">
        <walk edges="GorSq_1_1 BynPl_1_3 BynPl_1_2 BynPl_1_1 TorPl_1_4 TorPl_1_3 CheMe_2_1"/>
    </person>
    <person id="pedestrian85" depart="466.00">
        <walk edges="HunSt_1_1 TorPl_1_2 TorPl_1_3 TorPl_1_4 BynPl_1_1 BynPl_2_2"/>
    </person>
    <person id="pedestrian86" depart="470.00">
        <walk edges="MalSt_2_1 TorPl_2_1 TorPl_2_2 RidGa_2_1"/>
    </person>
    <person id="pedestrian87" depart="477.00">
        <walk edges="TorPl_2_1 MalPl_2_1"/>
    </person>
    <person id="pedestrian88" depart="477.00">
        <walk edges="HunSt_1_2 TorPl_2_3 TorPl_2_2 TorPl_2_1 BynPl_2_3"/>
    </person>
    <person id="pedestrian89" depart="483.00">
        <walk edges="RidGa_1_1 TorPl_2_2 TorPl_1_4 BynPl_1_1 BynPl_1_2 BynPl_1_3 GorSq_2_3"/>
    </person>
    <person id="pedestrian90" depart="487.00">
        <walk edges="HunSt_1_2 TorPl_2_3 TorPl_2_2 TorPl_1_4 MalPl_2_1"/>
    </person>
    <person id="pedestrian91" depart="498.00">
        <walk edges="BynPl_1_2 BynPl_1_1 MalPl_1_1"/>
    </person>
    <person id="pedestrian92" depart="500.00">
        <walk edges="MalSt_2_1 BynPl_2_3 BynPl_2_2 BynPl_1_3 GorSq_1_2"/>
    </person>
    <person id="pedestrian93" depart="509.00">
        <walk edges="HunSt_1_1 TorPl_1_2 TorPl_1_3 TorPl_1_4 BynPl_1_1"/>
    </person>
    <person id="pedestrian94" depart="512.00">
        <walk edges="MalPl_2_1 TorPl_1_4 TorPl_1_3 TorPl_1_2 HunSt_2_1"/>
    </person>
    <person id="pedestrian95" depart="513.00">
        <walk edges="HunSt_2_1 TorPl_2_4"/>
    </person>
    <person id="pedestrian96" depart="513.00">
        <walk edges="GorSq_2_3 BynPl_1_3 BynPl_2_2 BynPl_2_3"/>
    </person>
    <person id="pedestrian97" depart="517.00">
        <walk edges="CheMe_2_1 TorPl_1_3 GowSt_1_2"/>
    </person>
    <person id="pedestrian98" depart="518.00">
        <walk edges="MalPl_2_1 TorPl_1_4 GowSt_2_1"/>
    </person>
    <person id="pedestrian99" depart="525.00">
        <walk edges="GorSq_2_3 BynPl_1_3 BynPl_2_1 GorSq_2_2"/>
    </person>
    <person id="pedestrian100" depart="525.00">
        <walk edges="TorPl_1_4 BynPl_1_1 BynPl_1_2 BynPl_1_3 GorSq_1_2"/>
    </person>
    <person id="pedestrian101" depart="529.00">
        <walk edges="TorPl_1_2 TorPl_1_3 TorPl_1_4 BynPl_1_1 BynPl_1_2 BynPl_1_3 GorSq_1_2"/>
    </person>
    <person id="pedestrian102" depart="530.00">
        <walk edges="MalPl_1_1 MalSt_2_1"/>
    </person>
    <person id="pedestrian103" depart="533.00">
        <walk edges="MalPl_1_1 TorPl_1_4 TorPl_1_3 TorPl_1_2 HunSt_1_1"/>
    </person>
    <person id="pedestrian104" depart="539.00">
        <walk edges="GorSq_2_2 BynPl_2_1 BynPl_2_2 BynPl_1_1 MalPl_1_1"/>
    </person>
    <person id="pedestrian105" depart="549.00">
        <walk edges="BynPl_2_2 BynPl_1_3"/>
    </person>
    <person id="pedestrian106" depart="552.00">
        <walk edges="BynPl_1_3 BynPl_2_2"/>
    </person>
    <person id="pedestrian107" depart="553.00">
        <walk edges="GowSt_1_1 TorPl_1_4 BynPl_1_1 BynPl_1_2 BynPl_1_3"/>
    </person>
    <person id="pedestrian108" depart="555.00">
        <walk edges="BynPl_1_3 BynPl_1_2 BynPl_1_1 TorPl_1_4"/>
    </person>
    <person id="pedestrian109" depart="560.00">
        <walk edges="TorPl_1_1 TorPl_1_2 TorPl_1_3 TorPl_1_4 BynPl_1_1 BynPl_1_2 BynPl_1_3"/>
    </person>
    <person id="pedestrian110" depart="562.00">
        <walk edges="GowSt_1_2 TorPl_2_2 TorPl_2_3 HunSt_2_1"/>
    </person>
    <person id="pedestrian111" depart="574.00">
        <walk edges="BynPl_2_1 BynPl_1_3"/>
    </person>
    <person id="pedestrian112" depart="577.00">
        <walk edges="GorSq_2_1 GorSq_2_2 BynPl_2_1 BynPl_2_2 BynPl_1_1 TorPl_1_4 GowSt_1_1"/>
    </person>
    <person id="pedestrian113" depart="578.00">
        <walk edges="TorPl_1_1 TorPl_1_2 TorPl_1_3 TorPl_1_4"/>
    </person>
    <person id="pedestrian114" depart="587.00">
        <walk edges="GowSt_2_1 TorPl_2_2 RidGa_2_1"/>
    </person>
    <person id="pedestrian115" depart="590.00">
        <walk edges="BynPl_1_1 TorPl_1_4 TorPl_1_3 TorPl_1_2 TorPl_1_1"/>
    </person>
    <person id="pedestrian116" depart="603.00">
        <walk edges="TorPl_1_4 BynPl_1_1 BynPl_2_2"/>
    </person>
    <person id="pedestrian117" depart="618.00">
        <walk edges="TorPl_1_4 TorPl_1_3 TorPl_1_2 HunSt_2_2"/>
    </person>
    <person id="pedestrian118" depart="618.00">
        <walk edges="TorPl_1_3 TorPl_1_4 BynPl_2_3"/>
    </person>
    <person id="pedestrian119" depart="621.00">
        <walk edges="TorPl_2_4 TorPl_1_2 TorPl_1_3 TorPl_1_4 MalPl_1_1"/>
    </person>
    <person id="pedestrian120" depart="622.00">
        <walk edges="HunSt_2_1 TorPl_1_1"/>
    </person>
    <person id="pedestrian121" depart="622.00">
        <walk edges="BynPl_2_2 BynPl_2_1"/>
    </person>
    <person id="pedestrian122" depart="628.00">
        <walk edges="CheMe_1_1 CheMe_2_1"/>
    </person>
    <person id="pedestrian123" depart="628.00">
        <walk edges="HunSt_2_2 TorPl_1_2 CheMe_1_1"/>
    </person>
    <person id="pedestrian124" depart="638.00">
        <walk edges="GorSq_2_1 GorSq_1_2 BynPl_1_3"/>
    </person>
    <person id="pedestrian125" depart="638.00">
        <walk edges="MalPl_2_1 BynPl_1_1 BynPl_2_2 BynPl_2_1 GorSq_2_2 GorSq_2_1"/>
    </person>
    <person id="pedestrian126" depart="647.00">
        <walk edges="MalPl_2_1 TorPl_1_4 TorPl_1_3 TorPl_1_2"/>
    </person>
    <person id="pedestrian127" depart="647.00">
        <walk edges="GorSq_1_3 GorSq_1_2 BynPl_1_3 BynPl_2_2"/>
    </person>
    <person id="pedestrian128" depart="649.00">
        <walk edges="BynPl_2_1 BynPl_2_2 BynPl_1_1 TorPl_1_4 TorPl_1_3"/>
    </person>
    <person id="pedestrian129" depart="650.00">
        <walk edges="GorSq_1_1 BynPl_1_3 BynPl_1_2 BynPl_1_1 TorPl_1_4 TorPl_1_3 TorPl_1_2 HunSt_1_1"/>
    </person>
    <person id="pedestrian130" depart="662.00">
        <walk edges="GorSq_2_3 BynPl_1_3 BynPl_1_2 BynPl_1_1 TorPl_1_4 GowSt_1_1"/>
    </person>
    <person id="pedestrian131" depart="665.00">
        <walk edges="CheMe_2_1 TorPl_1_3 TorPl_1_4 BynPl_1_1 BynPl_2_2 BynPl_2_1 GorSq_2_2 GorSq_2_1"/>
    </person>
    <person id="pedestrian132" depart="667.00">
        <walk edges="TorPl_2_3 TorPl_2_2 TorPl_2_1 MalSt_2_1"/>
    </person>
    <person id="pedestrian133" depart="668.00">
        <walk edges="BynPl_1_2 BynPl_1_1 TorPl_1_4 TorPl_1_3 CheMe_1_1"/>
    </person>
    <person id="pedestrian134" depart="675.00">
        <walk edges="GowSt_1_2 TorPl_2_2"/>
    </person>
    <person id="pedestrian135" depart="677.00">
        <walk edges="BynPl_1_3 BynPl_1_2 BynPl_1_1 TorPl_1_4 TorPl_1_3 TorPl_1_2 HunSt_2_2"/>
    </person>
    <person id="pedestrian136" depart="679.00">
        <walk edges="GorSq_2_1 GorSq_2_2 BynPl_2_1 BynPl_2_2 BynPl_1_1 TorPl_1_4"/>
    </person>
    <person id="pedestrian137" depart="682.00">
        <walk edges="MalPl_1_1 TorPl_1_4 TorPl_2_2 RidGa_1_1"/>
    </person>
    <person id="pedestrian138" depart="690.00">
        <walk edges="RidGa_2_1 TorPl_2_2 TorPl_2_1 BynPl_2_3"/>
    </person>
    <person id="pedestrian139" depart="692.00">
        <walk edges="MalSt_1_1 TorPl_1_4"/>
    </person>
    <person id="pedestrian140" depart="695.00">
        <walk edges="GorSq_1_2 BynPl_1_3 BynPl_1_2 BynPl_1_1 TorPl_1_4 TorPl_1_3 TorPl_1_2 TorPl_2_4"/>
    </person>
    <person id="pedestrian141" depart="701.00">
        <walk edges="TorPl_1_4 BynPl_1_1 BynPl_1_2 BynPl_1_3 GorSq_1_1"/>
    </person>
    <person id="pedestrian142" depart="705.00">
        <walk edges="MalSt_1_1 TorPl_1_4 TorPl_1_3 TorPl_1_2 HunSt_1_1"/>
    </person>
    <person id="pedestrian143" depart="719.00">
        <walk edges="MalPl_1_1 TorPl_1_4 TorPl_1_3 TorPl_1_2 TorPl_2_4"/>
    </person>
    <person id="pedestrian144" depart="721.00">
        <walk edges="HunSt_1_1 TorPl_1_2"/>
    </person>
    <person id="pedestrian145" depart="722.00">
        <walk edges="GorSq_1_3 GorSq_1_2 GorSq_1_1"/>
    </person>
    <person id="pedestrian146" depart="730.00">
        <walk edges="TorPl_2_1 GowSt_2_2"/>
    </person>
    <person id="pedestrian147" depart="731.00">
        <walk edges="TorPl_1_3 TorPl_1_2 HunSt_1_2"/>
    </person>
    <person id="pedestrian148" depart="734.00">
        <walk edges="GorSq_2_1 GorSq_2_2 BynPl_2_1 BynPl_2_2 BynPl_1_1 TorPl_1_4 TorPl_1_3"/>
    </person>
    <person id="pedestrian149" depart="744.00">
        <walk edges="MalPl_2_1 BynPl_2_3"/>
    </person>
    <person id="pedestrian150" depart="752.00">
        <walk edges="HunSt_1_2 TorPl_1_2 CheMe_1_1"/>
    </person>
    <person id="pedestrian151" depart="756.00">
        <walk edges="GowSt_2_2 TorPl_1_3 TorPl_1_2 HunSt_2_2"/>
    </person>
    <person id="pedestrian152" depart="756.00">
        <walk edges="MalPl_1_1 MalPl_2_1"/>
    </person>
    <person id="pedestrian153" depart="762.00">
        <walk edges="TorPl_1_2 TorPl_1_3"/>
    </person>
    <person id="pedestrian154" depart="763.00">
        <walk edges="TorPl_2_3 RidGa_2_1"/>
    </person>
    <person id="pedestrian155" depart="774.00">
        <walk edges="BynPl_1_1 TorPl_1_4 GowSt_1_1"/>
    </person>
    <person id="pedestrian156" depart="778.00">
        <walk edges="TorPl_2_1 TorPl_1_4"/>
    </person>
    <person id="pedestrian157" depart="795.00">
        <walk edges="BynPl_1_2 BynPl_1_1 TorPl_1_4 TorPl_2_2"/>
    </person>
    <person id="pedestrian158" depart="798.00">
        <walk edges="RidGa_1_1 TorPl_2_3 TorPl_1_1"/>
    </person>
    <person id="pedestrian159" depart="806.00">
        <walk edges="TorPl_2_1 TorPl_2_2 RidGa_2_1"/>
    </person>
    <person id="pedestrian160" depart="817.00">
        <walk edges="RidGa_2_1 TorPl_2_2 TorPl_1_4"/>
    </person>
    <person id="pedestrian161" depart="830.00">
        <walk edges="BynPl_2_2 BynPl_1_1"/>
    </person>
    <person id="pedestrian162" depart="835.00">
        <walk edges="BynPl_2_3 MalSt_1_1"/>
    </person>
    <person id="pedestrian163" depart="838.00">
        <walk edges="TorPl_2_2 TorPl_2_3 HunSt_1_1"/>
    </person>
    <person id="pedestrian164" depart="839.00">
        <walk edges="TorPl_2_1 BynPl_1_1"/>
    </person>
    <person id="pedestrian165" depart="847.00">
        <walk edges="CheMe_2_1 TorPl_1_3 TorPl_2_1 MalSt_2_1"/>
    </person>
    <person id="pedestrian166" depart="854.00">
        <walk edges="HunSt_1_2 TorPl_2_3 TorPl_2_2 TorPl_1_4 MalPl_1_1"/>
    </person>
    <person id="pedestrian167" depart="867.00">
        <walk edges="CheMe_2_1 TorPl_1_3 TorPl_2_1 MalSt_2_1"/>
    </person>
    <person id="pedestrian168" depart="868.00">
        <walk edges="BynPl_2_3 BynPl_2_2 BynPl_2_1 GorSq_2_2 GorSq_2_1"/>
    </person>
    <person id="pedestrian169" depart="871.00">
        <walk edges="BynPl_1_1 TorPl_2_1"/>
    </person>
    <person id="pedestrian170" depart="874.00">
        <walk edges="TorPl_1_2 TorPl_1_3 GowSt_2_2"/>
    </person>
    <person id="pedestrian171" depart="879.00">
        <walk edges="HunSt_2_2 TorPl_1_2 TorPl_1_3 TorPl_1_4 BynPl_1_1 BynPl_2_2 BynPl_2_1 GorSq_2_2"/>
    </person>
    <person id="pedestrian172" depart="884.00">
        <walk edges="TorPl_2_1 BynPl_2_3"/>
    </person>
    <person id="pedestrian173" depart="885.00">
        <walk edges="TorPl_1_2 TorPl_1_3 TorPl_1_4 BynPl_2_3"/>
    </person>
    <person id="pedestrian174" depart="887.00">
        <walk edges="TorPl_1_1"/>
    </person>
    <person id="pedestrian175" depart="888.00">
        <walk edges="HunSt_2_2 TorPl_2_3 TorPl_2_2"/>
    </person>
    <person id="pedestrian176" depart="897.00">
        <walk edges="HunSt_2_1 TorPl_2_3 TorPl_2_2 TorPl_2_1 BynPl_2_3 BynPl_2_2"/>
    </person>
    <person id="pedestrian177" depart="906.00">
        <walk edges="BynPl_1_2 BynPl_1_1 TorPl_1_4 TorPl_1_3 TorPl_1_2 TorPl_1_1"/>
    </person>
    <person id="pedestrian178" depart="909.00">
        <walk edges="BynPl_1_3 BynPl_2_2 BynPl_2_3 MalSt_2_1"/>
    </person>
    <person id="pedestrian179" depart="909.00">
        <walk edges="TorPl_2_2 GowSt_1_1"/>
    </person>
    <person id="pedestrian180" depart="918.00">
        <walk edges="TorPl_2_1 GowSt_1_2"/>
    </person>
    <person id="pedestrian181" depart="929.00">
        <walk edges="HunSt_1_1 TorPl_2_4"/>
    </person>
    <person id="pedestrian182" depart="939.00">
        <walk edges="TorPl_2_2 RidGa_2_1"/>
    </person>
    <person id="pedestrian183" depart="943.00">
        <walk edges="TorPl_1_2 TorPl_1_3 TorPl_1_4 BynPl_1_1 BynPl_1_2 BynPl_1_3 GorSq_1_2 GorSq_1_3"/>
    </person>
    <person id="pedestrian184" depart="945.00">
        <walk edges="BynPl_2_2 BynPl_1_3 GorSq_1_2 GorSq_1_3"/>
    </person>
    <person id="pedestrian185" depart="947.00">
        <walk edges="GorSq_1_1 BynPl_1_3 BynPl_1_2 BynPl_1_1 TorPl_1_4 TorPl_1_3 TorPl_1_2 TorPl_1_1"/>
    </person>
    <person id="pedestrian186" depart="954.00">
        <walk edges="MalPl_2_1 TorPl_1_4"/>
    </person>
    <person id="pedestrian187" depart="963.00">
        <walk edges="GorSq_2_2 BynPl_2_1 BynPl_2_2 BynPl_1_1 TorPl_1_4 TorPl_1_3 CheMe_2_1"/>
    </person>
    <person id="pedestrian188" depart="966.00">
        <walk edges="GorSq_2_1 GorSq_2_2 BynPl_2_1 BynPl_2_2 BynPl_1_1 TorPl_1_4 GowSt_2_2"/>
    </person>
    <person id="pedestrian189" depart="969.00">
        <walk edges="RidGa_2_1 TorPl_2_2 TorPl_2_1 BynPl_2_3 BynPl_2_2 BynPl_2_1 GorSq_2_2"/>
    </person>
    <person id="pedestrian190" depart="975.00">
        <walk edges="GorSq_2_3 BynPl_1_3 BynPl_1_2 BynPl_1_1 TorPl_1_4 GowSt_1_1"/>
    </person>
    <person id="pedestrian191" depart="977.00">
        <walk edges="TorPl_1_3 TorPl_1_4 MalPl_1_1"/>
    </person>
    <person id="pedestrian192" depart="987.00">
        <walk edges="BynPl_2_2 BynPl_1_1 MalPl_2_1"/>
    </person>
    <person id="pedestrian193" depart="989.00">
        <walk edges="TorPl_1_1"/>
    </person>
    <person id="pedestrian194" depart="994.00">
        <walk edges="TorPl_1_2 TorPl_1_3 TorPl_1_4 MalSt_1_1"/>
    </person>
    <person id="pedestrian195" depart="994.00">
        <walk edges="GorSq_2_3 BynPl_1_3 BynPl_1_2"/>
    </person>
    <person id="pedestrian196" depart="1006.00">
        <walk edges="GorSq_1_3 GorSq_1_2 BynPl_1_3 BynPl_1_2 BynPl_1_1 TorPl_1_4"/>
    </person>
    <person id="pedestrian197" depart="1013.00">
        <walk edges="GowSt_1_1 TorPl_1_3 TorPl_1_2 HunSt_2_1"/>
    </person>
    <person id="pedestrian198" depart="1014.00">
        <walk edges="MalSt_1_1 TorPl_1_4 TorPl_1_3 TorPl_1_2 HunSt_2_2"/>
    </person>
    <person id="pedestrian199" depart="1029.00">
        <walk edges="BynPl_2_3 TorPl_1_4 GowSt_1_1"/>
    </person>
    <person id="pedestrian200" depart="1035.00">
        <walk edges="MalSt_2_1 TorPl_2_1 TorPl_2_2 RidGa_1_1"/>
    </person>
    <person id="pedestrian201" depart="1038.00">
        <walk edges="GorSq_2_3 BynPl_1_3 BynPl_2_1 GorSq_2_2"/>
    </person>
    <person id="pedestrian202" depart="1041.00">
        <walk edges="CheMe_2_1 TorPl_1_3 TorPl_1_4 BynPl_1_1 BynPl_1_2 BynPl_1_3 GorSq_1_2"/>
    </person>
    <person id="pedestrian203" depart="1050.00">
        <walk edges="HunSt_2_2 TorPl_2_3 TorPl_2_2 GowSt_2_1"/>
    </person>
    <person id="pedestrian204" depart="1056.00">
        <walk edges="TorPl_2_4 TorPl_1_2 TorPl_1_3 TorPl_1_4 BynPl_1_1 BynPl_1_2 BynPl_1_3 GorSq_1_2"/>
    </person>
    <person id="pedestrian205" depart="1059.00">
        <walk edges="BynPl_2_3 MalSt_2_1"/>
    </person>
    <person id="pedestrian206" depart="1059.00">
        <walk edges="CheMe_2_1 TorPl_1_3 GowSt_1_1"/>
    </person>
    <person id="pedestrian207" depart="1064.00">
        <walk edges="HunSt_1_1 TorPl_1_2 TorPl_1_3 TorPl_1_4 BynPl_1_1 BynPl_1_2 BynPl_1_3 GorSq_1_2 GorSq_1_3"/>
    </person>
    <person id="pedestrian208" depart="1072.00">
        <walk edges="BynPl_1_3 BynPl_1_2 BynPl_1_1 TorPl_1_4 TorPl_1_3"/>
    </person>
    <person id="pedestrian209" depart="1078.00">
        <walk edges="GorSq_2_3 BynPl_1_3 BynPl_1_2 BynPl_1_1 TorPl_1_4 TorPl_2_2 TorPl_2_3 HunSt_1_2"/>
    </person>
    <person id="pedestrian210" depart="1088.00">
        <walk edges="GorSq_2_1 GorSq_2_2 BynPl_2_1 BynPl_2_2 BynPl_1_1 TorPl_1_4"/>
    </person>
    <person id="pedestrian211" depart="1091.00">
        <walk edges="GowSt_2_2 TorPl_1_4"/>
    </person>
    <person id="pedestrian212" depart="1099.00">
        <walk edges="TorPl_1_2 CheMe_2_1"/>
    </person>
    <person id="pedestrian213" depart="1118.00">
        <walk edges="BynPl_1_2 BynPl_1_1 TorPl_1_4 GowSt_1_2"/>
    </person>
    <person id="pedestrian214" depart="1122.00">
        <walk edges="GorSq_1_2 BynPl_1_3 BynPl_2_2 BynPl_2_3 MalSt_2_1"/>
    </person>
    <person id="pedestrian215" depart="1127.00">
        <walk edges="GorSq_1_1 BynPl_1_3 BynPl_1_2"/>
    </person>
    <person id="pedestrian216" depart="1133.00">
        <walk edges="BynPl_2_2 BynPl_2_1 GorSq_2_2 GorSq_2_1"/>
    </person>
    <person id="pedestrian217" depart="1139.00">
        <walk edges="TorPl_1_2"/>
    </person>
    <person id="pedestrian218" depart="1150.00">
        <walk edges="HunSt_2_2 TorPl_1_2 TorPl_1_3 TorPl_1_4 BynPl_1_1 BynPl_1_2 BynPl_1_3"/>
    </person>
    <person id="pedestrian219" depart="1160.00">
        <walk edges="RidGa_1_1 TorPl_2_3 TorPl_1_2 CheMe_1_1"/>
    </person>
    <person id="pedestrian220" depart="1162.00">
        <walk edges="HunSt_2_1 TorPl_1_2 CheMe_1_1"/>
    </person>
    <person id="pedestrian221" depart="1164.00">
        <walk edges="CheMe_1_1 TorPl_1_3 TorPl_2_1 MalSt_2_1"/>
    </person>
    <person id="pedestrian222" depart="1166.00">
        <walk edges="HunSt_1_2 HunSt_2_2"/>
    </person>
    <person id="pedestrian223" depart="1172.00">
        <walk edges="HunSt_2_2 TorPl_2_3"/>
    </person>
    <person id="pedestrian224" depart="1173.00">
        <walk edges="GorSq_1_1 BynPl_1_3 BynPl_1_2 BynPl_1_1 TorPl_1_4 TorPl_2_2 TorPl_2_3"/>
    </person>
    <person id="pedestrian225" depart="1205.00">
        <walk edges="GorSq_1_2 GorSq_1_3"/>
    </person>
    <person id="pedestrian226" depart="1207.00">