<?xml version="1.0" encoding="UTF-8"?>

<!-- generated on 2026-04-01 12:55:22.661269 by Eclipse SUMO randomTrips.py UNKNOWN
<configuration>
    <net-file value="../networks/crossing/main.net.xml"/>
    <output-trip-file value="../routes/crossing/eval/100/bicycle.trips.xml"/>
    <route-file value="../routes/crossing/eval/100/bicycle.rou.xml"/>
    <prefix value="bicycle"/>
    <vehicle-class value="bicycle"/>
    <fringe-factor value="max"/>
    <seed value="100"/>
    <insertion-density value="50.0"/>
    <binomial value="100"/>
</configuration>
-->

<!-- generated on 2026-04-01T12:55:22.658388+00:00 by Eclipse SUMO duarouter 1.25.0
<duarouterConfiguration xmlns:xsi="http://www.w3.org/2001/XMLSchema-instance" xsi:noNamespaceSchemaLocation="http://sumo.dlr.de/xsd/duarouterConfiguration.xsd">

    <input>
        <net-file value="../networks/crossing/main.net.xml"/>
        <route-files value="../routes/crossing/eval/100/bicycle.trips.xml"/>
    </input>

    <output>
        <output-file value="../routes/crossing/eval/100/bicycle.rou.xml"/>
        <alternatives-output value="NUL"/>
    </output>

    <time>
        <begin value="0"/>
        <end value="3600.0"/>
    </time>

    <report>
        <no-warnings value="true"/>
        <ignore-errors value="true"/>
        <no-step-log value="true"/>
    </report>

</duarouterConfiguration>
-->

<routes xmlns:xsi="http://www.w3.org/2001/XMLSchema-instance" xsi:noNamespaceSchemaLocation="http://sumo.dlr.de/xsd/routes_file.xsd">
    <vType id="bicycle_bicycle" vClass="bicycle"/>
    <vehicle id="bicycle0" type="bicycle_bicycle" depart="193.00">
        <route edges="MalSt_2_1 BynPl_1_1"/>
    </vehicle>
    <vehicle id="bicycle1" type="bicycle_bicycle" depart="194.00">
        <route edges="MalSt_2_1 TorPl_2_1"/>
    </vehicle>
    <vehicle id="bicycle2" type="bicycle_bicycle" depart="788.00">
        <route edges="TorPl_1_1 BynPl_1_1"/>
    </vehicle>
    <vehicle id="bicycle3" type="bicycle_bicycle" depart="953.00">
        <route edges="BynPl_2_1 BynPl_1_1"/>
    </vehicle>
    <vehicle id="bicycle4" type="bicycle_bicycle" depart="1007.00">
        <route edges="BynPl_2_1 BynPl_1_1"/>
    </vehicle>
    <vehicle id="bicycle5" type="bicycle_bicycle" depart="1037.00">
        <route edges="BynPl_2_1 BynPl_1_1"/>
    </vehicle>
    <vehicle id="bicycle6" type="bicycle_bicycle" depart="1039.00">
        <route edges="BynPl_2_1 MalSt_1_1"/>
    </vehicle>
    <vehicle id="bicycle7" type="bicycle_bicycle" depart="1053.00">
        <route edges="MalSt_2_1 BynPl_1_1"/>
    </vehicle>
    <vehicle id="bicycle8" type="bicycle_bicycle" depart="1279.00">
        <route edges="MalSt_2_1 TorPl_2_1"/>
    </vehicle>
    <vehicle id="bicycle9" type="bicycle_bicycle" depart="1333.00">
        <route edges="BynPl_2_1 MalSt_1_1"/>
    </vehicle>
    <vehicle id="bicycle10" type="bicycle_bicycle" depart="1447.00">
        <route edges="MalSt_2_1 TorPl_2_1"/>
    </vehicle>
    <vehicle id="bicycle11" type="bicycle_bicycle" depart="1469.00">
        <route edges="TorPl_1_1 BynPl_1_1"/>
    </vehicle>
    <vehicle id="bicycle12" type="bicycle_bicycle" depart="1516.00">
        <route edges="MalSt_2_1 BynPl_1_1"/>
    </vehicle>
    <vehicle id="bicycle13" type="bicycle_bicycle" depart="1822.00">
        <route edges="BynPl_2_1 TorPl_2_1"/>
    </vehicle>
    <vehicle id="bicycle14" type="bicycle_bicycle" depart="2004.00">
        <route edges="BynPl_2_1 TorPl_2_1"/>
    </vehicle>
    <vehicle id="bicycle15" type="bicycle_bicycle" depart="2032.00">
        <route edges="BynPl_2_1 TorPl_2_1"/>
    </vehicle>
    <vehicle id="bicycle16" type="bicycle_bicycle" depart="2114.00">
        <route edges="MalSt_2_1 BynPl_1_1"/>
    </vehicle>
    <vehicle id="bicycle17" type="bicycle_bicycle" depart="2156.00">
        <route edges="TorPl_1_1 MalSt_1_1"/>
    </vehicle>
    <vehicle id="bicycle18" type="bicycle_bicycle" depart="2186.00">
        <route edges="MalSt_2_1 BynPl_1_1"/>
    </vehicle>
    <vehicle id="bicycle19" type="bicycle_bicycle" depart="2191.00">
        <route edges="BynPl_2_1 BynPl_1_1"/>
    </vehicle>
    <vehicle id="bicycle20" type="bicycle_bicycle" depart="2350.00">
        <route edges="TorPl_1_1 MalSt_1_1"/>
    </vehicle>
    <vehicle id="bicycle21" type="bicycle_bicycle" depart="2457.00">
        <route edges="BynPl_2_1 BynPl_1_1"/>
    </vehicle>
    <vehicle id="bicycle22" type="bicycle_bicycle" depart="2594.00">
        <route edges="BynPl_2_1 MalSt_1_1"/>
    </vehicle>
    <vehicle id="bicycle23" type="bicycle_bicycle" depart="2920.00">
        <route edges="BynPl_2_1 TorPl_2_1"/>
    </vehicle>
</routes>
