<?xml version="1.0" encoding="UTF-8"?>

<!-- generated on 2025-12-26 14:03:28.094112 by Eclipse SUMO randomTrips.py UNKNOWN
<configuration>
    <net-file value="../networks/crossing/main.net.xml"/>
    <output-trip-file value="../routes/crossing/eval/7/bicycle.trips.xml"/>
    <route-file value="../routes/crossing/eval/7/bicycle.rou.xml"/>
    <prefix value="bicycle"/>
    <vehicle-class value="bicycle"/>
    <fringe-factor value="max"/>
    <seed value="7"/>
    <period value="10.0"/>
    <binomial value="100"/>
</configuration>
-->

<!-- generated on 2025-12-26T14:03:28.088037+00:00 by Eclipse SUMO duarouter 1.25.0
<duarouterConfiguration xmlns:xsi="http://www.w3.org/2001/XMLSchema-instance" xsi:noNamespaceSchemaLocation="http://sumo.dlr.de/xsd/duarouterConfiguration.xsd">

    <input>
        <net-file value="../networks/crossing/main.net.xml"/>
        <route-files value="../routes/crossing/eval/7/bicycle.trips.xml"/>
    </input>

    <output>
        <output-file value="../routes/crossing/eval/7/bicycle.rou.xml"/>
        <alternatives-output value="NUL"/>
    </output>

    <time>
        <begin value="0"/>
        <end value="3600.0"/>
    </time>

    <report>
        <no-warnings value="true"/>
        <ignore-errors value="true"/>
        <no-step-log value="true"/>
    </report>

</duarouterConfiguration>
-->

<routes xmlns:xsi="http://www.w3.org/2001/XMLSchema-instance" xsi:noNamespaceSchemaLocation="http://sumo.dlr.de/xsd/routes_file.xsd">
    <vType id="bicycle_bicycle" vClass="bicycle"/>
    <vehicle id="bicycle0" type="bicycle_bicycle" depart="2.00">
        <route edges="BynPl_2_3 BynPl_1_1"/>
    </vehicle>
    <vehicle id="bicycle1" type="bicycle_bicycle" depart="32.00">
        <route edges="MalSt_2_1 TorPl_2_1"/>
    </vehicle>
    <vehicle id="bicycle2" type="bicycle_bicycle" depart="42.00">
        <route edges="BynPl_2_3 TorPl_2_1"/>
    </vehicle>
    <vehicle id="bicycle3" type="bicycle_bicycle" depart="45.00">
        <route edges="MalSt_2_1 BynPl_1_1"/>
    </vehicle>
    <vehicle id="bicycle4" type="bicycle_bicycle" depart="46.00">
        <route edges="TorPl_1_4 BynPl_1_1"/>
    </vehicle>
    <vehicle id="bicycle5" type="bicycle_bicycle" depart="47.00">
        <route edges="BynPl_2_3 MalSt_1_1"/>
    </vehicle>
    <vehicle id="bicycle6" type="bicycle_bicycle" depart="64.00">
        <route edges="MalSt_2_1 BynPl_1_1"/>
    </vehicle>
    <vehicle id="bicycle7" type="bicycle_bicycle" depart="70.00">
        <route edges="TorPl_1_4 BynPl_1_1"/>
    </vehicle>
    <vehicle id="bicycle8" type="bicycle_bicycle" depart="73.00">
        <route edges="TorPl_1_4 BynPl_1_1"/>
    </vehicle>
    <vehicle id="bicycle9" type="bicycle_bicycle" depart="82.00">
        <route edges="TorPl_1_4 BynPl_1_1"/>
    </vehicle>
    <vehicle id="bicycle10" type="bicycle_bicycle" depart="86.00">
        <route edges="MalSt_2_1 BynPl_1_1"/>
    </vehicle>
    <vehicle id="bicycle11" type="bicycle_bicycle" depart="90.00">
        <route edges="BynPl_2_3 TorPl_2_1"/>
    </vehicle>
    <vehicle id="bicycle12" type="bicycle_bicycle" depart="90.00">
        <route edges="MalSt_2_1 BynPl_1_1"/>
    </vehicle>
    <vehicle id="bicycle13" type="bicycle_bicycle" depart="132.00">
        <route edges="BynPl_2_3 TorPl_2_1"/>
    </vehicle>
    <vehicle id="bicycle14" type="bicycle_bicycle" depart="143.00">
        <route edges="TorPl_1_4 BynPl_1_1"/>
    </vehicle>
    <vehicle id="bicycle15" type="bicycle_bicycle" depart="147.00">
        <route edges="BynPl_2_3 MalSt_1_1"/>
    </vehicle>
    <vehicle id="bicycle16" type="bicycle_bicycle" depart="179.00">
        <route edges="BynPl_2_3 MalSt_1_1"/>
    </vehicle>
    <vehicle id="bicycle17" type="bicycle_bicycle" depart="182.00">
        <route edges="MalSt_2_1 BynPl_1_1"/>
    </vehicle>
    <vehicle id="bicycle18" type="bicycle_bicycle" depart="215.00">
        <route edges="MalSt_2_1 TorPl_2_1"/>
    </vehicle>
    <vehicle id="bicycle19" type="bicycle_bicycle" depart="228.00">
        <route edges="MalSt_2_1 BynPl_1_1"/>
    </vehicle>
    <vehicle id="bicycle20" type="bicycle_bicycle" depart="239.00">
        <route edges="BynPl_2_3 TorPl_2_1"/>
    </vehicle>
    <vehicle id="bicycle21" type="bicycle_bicycle" depart="239.00">
        <route edges="BynPl_2_3 MalSt_1_1"/>
    </vehicle>
    <vehicle id="bicycle22" type="bicycle_bicycle" depart="240.00">
        <route edges="BynPl_2_3 MalSt_1_1"/>
    </vehicle>
    <vehicle id="bicycle23" type="bicycle_bicycle" depart="249.00">
        <route edges="TorPl_1_4 MalSt_1_1"/>
    </vehicle>
    <vehicle id="bicycle24" type="bicycle_bicycle" depart="264.00">
        <route edges="TorPl_1_4 BynPl_1_1"/>
    </vehicle>
    <vehicle id="bicycle25" type="bicycle_bicycle" depart="270.00">
        <route edges="BynPl_2_3 TorPl_2_1"/>
    </vehicle>
    <vehicle id="bicycle26" type="bicycle_bicycle" depart="270.00">
        <route edges="BynPl_2_3 TorPl_2_1"/>
    </vehicle>
    <vehicle id="bicycle27" type="bicycle_bicycle" depart="288.00">
        <route edges="TorPl_1_4 MalSt_1_1"/>
    </vehicle>
    <vehicle id="bicycle28" type="bicycle_bicycle" depart="290.00">
        <route edges="TorPl_1_4 MalSt_1_1"/>
    </vehicle>
    <vehicle id="bicycle29" type="bicycle_bicycle" depart="291.00">
        <route edges="MalSt_2_1 BynPl_1_1"/>
    </vehicle>
    <vehicle id="bicycle30" type="bicycle_bicycle" depart="294.00">
        <route edges="MalSt_2_1 TorPl_2_1"/>
    </vehicle>
    <vehicle id="bicycle31" type="bicycle_bicycle" depart="297.00">
        <route edges="BynPl_2_3 BynPl_1_1"/>
    </vehicle>
    <vehicle id="bicycle32" type="bicycle_bicycle" depart="301.00">
        <route edges="BynPl_2_3 MalSt_1_1"/>
    </vehicle>
    <vehicle id="bicycle33" type="bicycle_bicycle" depart="320.00">
        <route edges="MalSt_2_1 BynPl_1_1"/>
    </vehicle>
    <vehicle id="bicycle34" type="bicycle_bicycle" depart="327.00">
        <route edges="MalSt_2_1 TorPl_2_1"/>
    </vehicle>
    <vehicle id="bicycle35" type="bicycle_bicycle" depart="331.00">
        <route edges="MalSt_2_1 TorPl_2_1"/>
    </vehicle>
    <vehicle id="bicycle36" type="bicycle_bicycle" depart="346.00">
        <route edges="TorPl_1_4 BynPl_1_1"/>
    </vehicle>
    <vehicle id="bicycle37" type="bicycle_bicycle" depart="352.00">
        <route edges="TorPl_1_4 MalSt_1_1"/>
    </vehicle>
    <vehicle id="bicycle38" type="bicycle_bicycle" depart="357.00">
        <route edges="TorPl_1_4 MalSt_1_1"/>
    </vehicle>
    <vehicle id="bicycle39" type="bicycle_bicycle" depart="370.00">
        <route edges="BynPl_2_3 BynPl_1_1"/>
    </vehicle>
    <vehicle id="bicycle40" type="bicycle_bicycle" depart="393.00">
        <route edges="BynPl_2_3 TorPl_2_1"/>
    </vehicle>
    <vehicle id="bicycle41" type="bicycle_bicycle" depart="414.00">
        <route edges="BynPl_2_3 BynPl_1_1"/>
    </vehicle>
    <vehicle id="bicycle42" type="bicycle_bicycle" depart="420.00">
        <route edges="BynPl_2_3 TorPl_2_1"/>
    </vehicle>
    <vehicle id="bicycle43" type="bicycle_bicycle" depart="434.00">
        <route edges="MalSt_2_1 TorPl_2_1"/>
    </vehicle>
    <vehicle id="bicycle44" type="bicycle_bicycle" depart="437.00">
        <route edges="MalSt_2_1 BynPl_1_1"/>
    </vehicle>
    <vehicle id="bicycle45" type="bicycle_bicycle" depart="467.00">
        <route edges="TorPl_1_4 BynPl_1_1"/>
    </vehicle>
    <vehicle id="bicycle46" type="bicycle_bicycle" depart="472.00">
        <route edges="MalSt_2_1 TorPl_2_1"/>
    </vehicle>
    <vehicle id="bicycle47" type="bicycle_bicycle" depart="500.00">
        <route edges="BynPl_2_3 MalSt_1_1"/>
    </vehicle>
    <vehicle id="bicycle48" type="bicycle_bicycle" depart="506.00">
        <route edges="BynPl_2_3 MalSt_1_1"/>
    </vehicle>
    <vehicle id="bicycle49" type="bicycle_bicycle" depart="507.00">
        <route edges="BynPl_2_3 BynPl_1_1"/>
    </vehicle>
    <vehicle id="bicycle50" type="bicycle_bicycle" depart="508.00">
        <route edges="TorPl_1_4 MalSt_1_1"/>
    </vehicle>
    <vehicle id="bicycle51" type="bicycle_bicycle" depart="509.00">
        <route edges="MalSt_2_1 TorPl_2_1"/>
    </vehicle>
    <vehicle id="bicycle52" type="bicycle_bicycle" depart="509.00">
        <route edges="BynPl_2_3 BynPl_1_1"/>
    </vehicle>
    <vehicle id="bicycle53" type="bicycle_bicycle" depart="548.00">
        <route edges="MalSt_2_1 BynPl_1_1"/>
    </vehicle>
    <vehicle id="bicycle54" type="bicycle_bicycle" depart="558.00">
        <route edges="MalSt_2_1 BynPl_1_1"/>
    </vehicle>
    <vehicle id="bicycle55" type="bicycle_bicycle" depart="571.00">
        <route edges="MalSt_2_1 BynPl_1_1"/>
    </vehicle>
    <vehicle id="bicycle56" type="bicycle_bicycle" depart="575.00">
        <route edges="MalSt_2_1 BynPl_1_1"/>
    </vehicle>
    <vehicle id="bicycle57" type="bicycle_bicycle" depart="591.00">
        <route edges="TorPl_1_4 MalSt_1_1"/>
    </vehicle>
    <vehicle id="bicycle58" type="bicycle_bicycle" depart="624.00">
        <route edges="MalSt_2_1 BynPl_1_1"/>
    </vehicle>
    <vehicle id="bicycle59" type="bicycle_bicycle" depart="625.00">
        <route edges="BynPl_2_3 TorPl_2_1"/>
    </vehicle>
    <vehicle id="bicycle60" type="bicycle_bicycle" depart="629.00">
        <route edges="TorPl_1_4 MalSt_1_1"/>
    </vehicle>
    <vehicle id="bicycle61" type="bicycle_bicycle" depart="636.00">
        <route edges="MalSt_2_1 TorPl_2_1"/>
    </vehicle>
    <vehicle id="bicycle62" type="bicycle_bicycle" depart="684.00">
        <route edges="MalSt_2_1 TorPl_2_1"/>
    </vehicle>
    <vehicle id="bicycle63" type="bicycle_bicycle" depart="713.00">
        <route edges="TorPl_1_4 BynPl_1_1"/>
    </vehicle>
    <vehicle id="bicycle64" type="bicycle_bicycle" depart="714.00">
        <route edges="TorPl_1_4 BynPl_1_1"/>
    </vehicle>
    <vehicle id="bicycle65" type="bicycle_bicycle" depart="716.00">
        <route edges="TorPl_1_4 BynPl_1_1"/>
    </vehicle>
    <vehicle id="bicycle66" type="bicycle_bicycle" depart="722.00">
        <route edges="BynPl_2_3 BynPl_1_1"/>
    </vehicle>
    <vehicle id="bicycle67" type="bicycle_bicycle" depart="730.00">
        <route edges="BynPl_2_3 BynPl_1_1"/>
    </vehicle>
    <vehicle id="bicycle68" type="bicycle_bicycle" depart="732.00">
        <route edges="TorPl_1_4 BynPl_1_1"/>
    </vehicle>
    <vehicle id="bicycle69" type="bicycle_bicycle" depart="753.00">
        <route edges="TorPl_1_4 MalSt_1_1"/>
    </vehicle>
    <vehicle id="bicycle70" type="bicycle_bicycle" depart="759.00">
        <route edges="MalSt_2_1 TorPl_2_1"/>
    </vehicle>
    <vehicle id="bicycle71" type="bicycle_bicycle" depart="772.00">
        <route edges="MalSt_2_1 BynPl_1_1"/>
    </vehicle>
    <vehicle id="bicycle72" type="bicycle_bicycle" depart="781.00">
        <route edges="BynPl_2_3 BynPl_1_1"/>
    </vehicle>
    <vehicle id="bicycle73" type="bicycle_bicycle" depart="784.00">
        <route edges="MalSt_2_1 TorPl_2_1"/>
    </vehicle>
    <vehicle id="bicycle74" type="bicycle_bicycle" depart="789.00">
        <route edges="MalSt_2_1 TorPl_2_1"/>
    </vehicle>
    <vehicle id="bicycle75" type="bicycle_bicycle" depart="795.00">
        <route edges="MalSt_2_1 TorPl_2_1"/>
    </vehicle>
    <vehicle id="bicycle76" type="bicycle_bicycle" depart="830.00">
        <route edges="BynPl_2_3 TorPl_2_1"/>
    </vehicle>
    <vehicle id="bicycle77" type="bicycle_bicycle" depart="856.00">
        <route edges="BynPl_2_3 BynPl_1_1"/>
    </vehicle>
    <vehicle id="bicycle78" type="bicycle_bicycle" depart="868.00">
        <route edges="TorPl_1_4 BynPl_1_1"/>
    </vehicle>
    <vehicle id="bicycle79" type="bicycle_bicycle" depart="868.00">
        <route edges="BynPl_2_3 MalSt_1_1"/>
    </vehicle>
    <vehicle id="bicycle80" type="bicycle_bicycle" depart="873.00">
        <route edges="TorPl_1_4 MalSt_1_1"/>
    </vehicle>
    <vehicle id="bicycle81" type="bicycle_bicycle" depart="886.00">
        <route edges="BynPl_2_3 MalSt_1_1"/>
    </vehicle>
    <vehicle id="bicycle82" type="bicycle_bicycle" depart="887.00">
        <route edges="BynPl_2_3 MalSt_1_1"/>
    </vehicle>
    <vehicle id="bicycle83" type="bicycle_bicycle" depart="897.00">
        <route edges="BynPl_2_3 BynPl_1_1"/>
    </vehicle>
    <vehicle id="bicycle84" type="bicycle_bicycle" depart="909.00">
        <route edges="MalSt_2_1 TorPl_2_1"/>
    </vehicle>
    <vehicle id="bicycle85" type="bicycle_bicycle" depart="921.00">
        <route edges="BynPl_2_3 TorPl_2_1"/>
    </vehicle>
    <vehicle id="bicycle86" type="bicycle_bicycle" depart="933.00">
        <route edges="BynPl_2_3 TorPl_2_1"/>
    </vehicle>
    <vehicle id="bicycle87" type="bicycle_bicycle" depart="937.00">
        <route edges="BynPl_2_3 MalSt_1_1"/>
    </vehicle>
    <vehicle id="bicycle88" type="bicycle_bicycle" depart="950.00">
        <route edges="BynPl_2_3 TorPl_2_1"/>
    </vehicle>
    <vehicle id="bicycle89" type="bicycle_bicycle" depart="951.00">
        <route edges="BynPl_2_3 MalSt_1_1"/>
    </vehicle>
    <vehicle id="bicycle90" type="bicycle_bicycle" depart="963.00">
        <route edges="MalSt_2_1 TorPl_2_1"/>
    </vehicle>
    <vehicle id="bicycle91" type="bicycle_bicycle" depart="986.00">
        <route edges="BynPl_2_3 BynPl_1_1"/>
    </vehicle>
    <vehicle id="bicycle92" type="bicycle_bicycle" depart="988.00">
        <route edges="TorPl_1_4 BynPl_1_1"/>
    </vehicle>
    <vehicle id="bicycle93" type="bicycle_bicycle" depart="992.00">
        <route edges="BynPl_2_3 MalSt_1_1"/>
    </vehicle>
    <vehicle id="bicycle94" type="bicycle_bicycle" depart="998.00">
        <route edges="BynPl_2_3 BynPl_1_1"/>
    </vehicle>
    <vehicle id="bicycle95" type="bicycle_bicycle" depart="1006.00">
        <route edges="MalSt_2_1 TorPl_2_1"/>
    </vehicle>
    <vehicle id="bicycle96" type="bicycle_bicycle" depart="1015.00">
        <route edges="MalSt_2_1 BynPl_1_1"/>
    </vehicle>
    <vehicle id="bicycle97" type="bicycle_bicycle" depart="1022.00">
        <route edges="MalSt_2_1 BynPl_1_1"/>
    </vehicle>
    <vehicle id="bicycle98" type="bicycle_bicycle" depart="1033.00">
        <route edges="BynPl_2_3 MalSt_1_1"/>
    </vehicle>
    <vehicle id="bicycle99" type="bicycle_bicycle" depart="1045.00">
        <route edges="BynPl_2_3 MalSt_1_1"/>
    </vehicle>
    <vehicle id="bicycle100" type="bicycle_bicycle" depart="1056.00">
        <route edges="TorPl_1_4 BynPl_1_1"/>
    </vehicle>
    <vehicle id="bicycle101" type="bicycle_bicycle" depart="1069.00">
        <route edges="TorPl_1_4 BynPl_1_1"/>
    </vehicle>
    <vehicle id="bicycle102" type="bicycle_bicycle" depart="1093.00">
        <route edges="MalSt_2_1 BynPl_1_1"/>
    </vehicle>
    <vehicle id="bicycle103" type="bicycle_bicycle" depart="1097.00">
        <route edges="BynPl_2_3 BynPl_1_1"/>
    </vehicle>
    <vehicle id="bicycle104" type="bicycle_bicycle" depart="1100.00">
        <route edges="MalSt_2_1 TorPl_2_1"/>
    </vehicle>
    <vehicle id="bicycle105" type="bicycle_bicycle" depart="1105.00">
        <route edges="MalSt_2_1 TorPl_2_1"/>
    </vehicle>
    <vehicle id="bicycle106" type="bicycle_bicycle" depart="1139.00">
        <route edges="TorPl_1_4 MalSt_1_1"/>
    </vehicle>
    <vehicle id="bicycle107" type="bicycle_bicycle" depart="1140.00">
        <route edges="BynPl_2_3 BynPl_1_1"/>
    </vehicle>
    <vehicle id="bicycle108" type="bicycle_bicycle" depart="1160.00">
        <route edges="TorPl_1_4 BynPl_1_1"/>
    </vehicle>
    <vehicle id="bicycle109" type="bicycle_bicycle" depart="1191.00">
        <route edges="BynPl_2_3 MalSt_1_1"/>
    </vehicle>
    <vehicle id="bicycle110" type="bicycle_bicycle" depart="1213.00">
        <route edges="MalSt_2_1 TorPl_2_1"/>
    </vehicle>
    <vehicle id="bicycle111" type="bicycle_bicycle" depart="1222.00">
        <route edges="MalSt_2_1 BynPl_1_1"/>
    </vehicle>
    <vehicle id="bicycle112" type="bicycle_bicycle" depart="1226.00">
        <route edges="TorPl_1_4 BynPl_1_1"/>
    </vehicle>
    <vehicle id="bicycle113" type="bicycle_bicycle" depart="1233.00">
        <route edges="TorPl_1_4 MalSt_1_1"/>
    </vehicle>
    <vehicle id="bicycle114" type="bicycle_bicycle" depart="1238.00">
        <route edges="MalSt_2_1 TorPl_2_1"/>
    </vehicle>
    <vehicle id="bicycle115" type="bicycle_bicycle" depart="1240.00">
        <route edges="MalSt_2_1 BynPl_1_1"/>
    </vehicle>
    <vehicle id="bicycle116" type="bicycle_bicycle" depart="1282.00">
        <route edges="MalSt_2_1 BynPl_1_1"/>
    </vehicle>
    <vehicle id="bicycle117" type="bicycle_bicycle" depart="1282.00">
        <route edges="BynPl_2_3 TorPl_2_1"/>
    </vehicle>
    <vehicle id="bicycle118" type="bicycle_bicycle" depart="1288.00">
        <route edges="MalSt_2_1 BynPl_1_1"/>
    </vehicle>
    <vehicle id="bicycle119" type="bicycle_bicycle" depart="1297.00">
        <route edges="MalSt_2_1 BynPl_1_1"/>
    </vehicle>
    <vehicle id="bicycle120" type="bicycle_bicycle" depart="1301.00">
        <route edges="TorPl_1_4 BynPl_1_1"/>
    </vehicle>
    <vehicle id="bicycle121" type="bicycle_bicycle" depart="1303.00">
        <route edges="MalSt_2_1 BynPl_1_1"/>
    </vehicle>
    <vehicle id="bicycle122" type="bicycle_bicycle" depart="1304.00">
        <route edges="MalSt_2_1 TorPl_2_1"/>
    </vehicle>
    <vehicle id="bicycle123" type="bicycle_bicycle" depart="1343.00">
        <route edges="TorPl_1_4 MalSt_1_1"/>
    </vehicle>
    <vehicle id="bicycle124" type="bicycle_bicycle" depart="1347.00">
        <route edges="BynPl_2_3 MalSt_1_1"/>
    </vehicle>
    <vehicle id="bicycle125" type="bicycle_bicycle" depart="1372.00">
        <route edges="TorPl_1_4 BynPl_1_1"/>
    </vehicle>
    <vehicle id="bicycle126" type="bicycle_bicycle" depart="1403.00">
        <route edges="MalSt_2_1 BynPl_1_1"/>
    </vehicle>
    <vehicle id="bicycle127" type="bicycle_bicycle" depart="1415.00">
        <route edges="BynPl_2_3 BynPl_1_1"/>
    </vehicle>
    <vehicle id="bicycle128" type="bicycle_bicycle" depart="1418.00">
        <route edges="TorPl_1_4 BynPl_1_1"/>
    </vehicle>
    <vehicle id="bicycle129" type="bicycle_bicycle" depart="1423.00">
        <route edges="MalSt_2_1 TorPl_2_1"/>
    </vehicle>
    <vehicle id="bicycle130" type="bicycle_bicycle" depart="1438.00">
        <route edges="BynPl_2_3 BynPl_1_1"/>
    </vehicle>
    <vehicle id="bicycle131" type="bicycle_bicycle" depart="1438.00">
        <route edges="TorPl_1_4 MalSt_1_1"/>
    </vehicle>
    <vehicle id="bicycle132" type="bicycle_bicycle" depart="1467.00">
        <route edges="MalSt_2_1 TorPl_2_1"/>
    </vehicle>
    <vehicle id="bicycle133" type="bicycle_bicycle" depart="1494.00">
        <route edges="BynPl_2_3 MalSt_1_1"/>
    </vehicle>
    <vehicle id="bicycle134" type="bicycle_bicycle" depart="1504.00">
        <route edges="BynPl_2_3 BynPl_1_1"/>
    </vehicle>
    <vehicle id="bicycle135" type="bicycle_bicycle" depart="1512.00">
        <route edges="TorPl_1_4 BynPl_1_1"/>
    </vehicle>
    <vehicle id="bicycle136" type="bicycle_bicycle" depart="1513.00">
        <route edges="BynPl_2_3 TorPl_2_1"/>
    </vehicle>
    <vehicle id="bicycle137" type="bicycle_bicycle" depart="1515.00">
        <route edges="TorPl_1_4 MalSt_1_1"/>
    </vehicle>
    <vehicle id="bicycle138" type="bicycle_bicycle" depart="1517.00">
        <route edges="BynPl_2_3 TorPl_2_1"/>
    </vehicle>
    <vehicle id="bicycle139" type="bicycle_bicycle" depart="1518.00">
        <route edges="TorPl_1_4 MalSt_1_1"/>
    </vehicle>
    <vehicle id="bicycle140" type="bicycle_bicycle" depart="1520.00">
        <route edges="TorPl_1_4 BynPl_1_1"/>
    </vehicle>
    <vehicle id="bicycle141" type="bicycle_bicycle" depart="1552.00">
        <route edges="TorPl_1_4 MalSt_1_1"/>
    </vehicle>
    <vehicle id="bicycle142" type="bicycle_bicycle" depart="1567.00">
        <route edges="BynPl_2_3 MalSt_1_1"/>
    </vehicle>
    <vehicle id="bicycle143" type="bicycle_bicycle" depart="1569.00">
        <route edges="BynPl_2_3 TorPl_2_1"/>
    </vehicle>
    <vehicle id="bicycle144" type="bicycle_bicycle" depart="1573.00">
        <route edges="BynPl_2_3 BynPl_1_1"/>
    </vehicle>
    <vehicle id="bicycle145" type="bicycle_bicycle" depart="1579.00">
        <route edges="BynPl_2_3 TorPl_2_1"/>
    </vehicle>
    <vehicle id="bicycle146" type="bicycle_bicycle" depart="1584.00">
        <route edges="BynPl_2_3 BynPl_1_1"/>
    </vehicle>
    <vehicle id="bicycle147" type="bicycle_bicycle" depart="1636.00">
        <route edges="BynPl_2_3 BynPl_1_1"/>
    </vehicle>
    <vehicle id="bicycle148" type="bicycle_bicycle" depart="1637.00">
        <route edges="MalSt_2_1 TorPl_2_1"/>
    </vehicle>
    <vehicle id="bicycle149" type="bicycle_bicycle" depart="1654.00">
        <route edges="TorPl_1_4 BynPl_1_1"/>
    </vehicle>
    <vehicle id="bicycle150" type="bicycle_bicycle" depart="1656.00">
        <route edges="MalSt_2_1 TorPl_2_1"/>
    </vehicle>
    <vehicle id="bicycle151" type="bicycle_bicycle" depart="1657.00">
        <route edges="BynPl_2_3 TorPl_2_1"/>
    </vehicle>
    <vehicle id="bicycle152" type="bicycle_bicycle" depart="1661.00">
        <route edges="BynPl_2_3 MalSt_1_1"/>
    </vehicle>
    <vehicle id="bicycle153" type="bicycle_bicycle" depart="1664.00">
        <route edges="MalSt_2_1 BynPl_1_1"/>
    </vehicle>
    <vehicle id="bicycle154" type="bicycle_bicycle" depart="1668.00">
        <route edges="BynPl_2_3 TorPl_2_1"/>
    </vehicle>
    <vehicle id="bicycle155" type="bicycle_bicycle" depart="1690.00">
        <route edges="TorPl_1_4 BynPl_1_1"/>
    </vehicle>
    <vehicle id="bicycle156" type="bicycle_bicycle" depart="1693.00">
        <route edges="BynPl_2_3 MalSt_1_1"/>
    </vehicle>
    <vehicle id="bicycle157" type="bicycle_bicycle" depart="1709.00">
        <route edges="BynPl_2_3 TorPl_2_1"/>
    </vehicle>
    <vehicle id="bicycle158" type="bicycle_bicycle" depart="1723.00">
        <route edges="MalSt_2_1 TorPl_2_1"/>
    </vehicle>
    <vehicle id="bicycle159" type="bicycle_bicycle" depart="1756.00">
        <route edges="TorPl_1_4 MalSt_1_1"/>
    </vehicle>
    <vehicle id="bicycle160" type="bicycle_bicycle" depart="1759.00">
        <route edges="BynPl_2_3 BynPl_1_1"/>
    </vehicle>
    <vehicle id="bicycle161" type="bicycle_bicycle" depart="1759.00">
        <route edges="BynPl_2_3 TorPl_2_1"/>
    </vehicle>
    <vehicle id="bicycle162" type="bicycle_bicycle" depart="1763.00">
        <route edges="TorPl_1_4 BynPl_1_1"/>
    </vehicle>
    <vehicle id="bicycle163" type="bicycle_bicycle" depart="1772.00">
        <route edges="TorPl_1_4 MalSt_1_1"/>
    </vehicle>
    <vehicle id="bicycle164" type="bicycle_bicycle" depart="1783.00">
        <route edges="TorPl_1_4 BynPl_1_1"/>
    </vehicle>
    <vehicle id="bicycle165" type="bicycle_bicycle" depart="1783.00">
        <route edges="BynPl_2_3 MalSt_1_1"/>
    </vehicle>
    <vehicle id="bicycle166" type="bicycle_bicycle" depart="1800.00">
        <route edges="MalSt_2_1 TorPl_2_1"/>
    </vehicle>
    <vehicle id="bicycle167" type="bicycle_bicycle" depart="1801.00">
        <route edges="MalSt_2_1 BynPl_1_1"/>
    </vehicle>
    <vehicle id="bicycle168" type="bicycle_bicycle" depart="1802.00">
        <route edges="TorPl_1_4 BynPl_1_1"/>
    </vehicle>
    <vehicle id="bicycle169" type="bicycle_bicycle" depart="1804.00">
        <route edges="TorPl_1_4 MalSt_1_1"/>
    </vehicle>
    <vehicle id="bicycle170" type="bicycle_bicycle" depart="1817.00">
        <route edges="MalSt_2_1 TorPl_2_1"/>
    </vehicle>
    <vehicle id="bicycle171" type="bicycle_bicycle" depart="1837.00">
        <route edges="BynPl_2_3 TorPl_2_1"/>
    </vehicle>
    <vehicle id="bicycle172" type="bicycle_bicycle" depart="1843.00">
        <route edges="BynPl_2_3 MalSt_1_1"/>
    </vehicle>
    <vehicle id="bicycle173" type="bicycle_bicycle" depart="1854.00">
        <route edges="MalSt_2_1 BynPl_1_1"/>
    </vehicle>
    <vehicle id="bicycle174" type="bicycle_bicycle" depart="1870.00">
        <route edges="TorPl_1_4 BynPl_1_1"/>
    </vehicle>
    <vehicle id="bicycle175" type="bicycle_bicycle" depart="1875.00">
        <route edges="BynPl_2_3 BynPl_1_1"/>
    </vehicle>
    <vehicle id="bicycle176" type="bicycle_bicycle" depart="1876.00">
        <route edges="BynPl_2_3 BynPl_1_1"/>
    </vehicle>
    <vehicle id="bicycle177" type="bicycle_bicycle" depart="1877.00">
        <route edges="TorPl_1_4 BynPl_1_1"/>
    </vehicle>
    <vehicle id="bicycle178" type="bicycle_bicycle" depart="1879.00">
        <route edges="BynPl_2_3 BynPl_1_1"/>
    </vehicle>
    <vehicle id="bicycle179" type="bicycle_bicycle" depart="1882.00">
        <route edges="MalSt_2_1 TorPl_2_1"/>
    </vehicle>
    <vehicle id="bicycle180" type="bicycle_bicycle" depart="1896.00">
        <route edges="BynPl_2_3 MalSt_1_1"/>
    </vehicle>
    <vehicle id="bicycle181" type="bicycle_bicycle" depart="1904.00">
        <route edges="TorPl_1_4 BynPl_1_1"/>
    </vehicle>
    <vehicle id="bicycle182" type="bicycle_bicycle" depart="1910.00">
        <route edges="MalSt_2_1 BynPl_1_1"/>
    </vehicle>
    <vehicle id="bicycle183" type="bicycle_bicycle" depart="1914.00">
        <route edges="TorPl_1_4 MalSt_1_1"/>
    </vehicle>
    <vehicle id="bicycle184" type="bicycle_bicycle" depart="1917.00">
        <route edges="MalSt_2_1 TorPl_2_1"/>
    </vehicle>
    <vehicle id="bicycle185" type="bicycle_bicycle" depart="1922.00">
        <route edges="TorPl_1_4 MalSt_1_1"/>
    </vehicle>
    <vehicle id="bicycle186" type="bicycle_bicycle" depart="1925.00">
        <route edges="MalSt_2_1 BynPl_1_1"/>
    </vehicle>
    <vehicle id="bicycle187" type="bicycle_bicycle" depart="1947.00">
        <route edges="TorPl_1_4 MalSt_1_1"/>
    </vehicle>
    <vehicle id="bicycle188" type="bicycle_bicycle" depart="1966.00">
        <route edges="BynPl_2_3 MalSt_1_1"/>
    </vehicle>
    <vehicle id="bicycle189" type="bicycle_bicycle" depart="1970.00">
        <route edges="BynPl_2_3 TorPl_2_1"/>
    </vehicle>
    <vehicle id="bicycle190" type="bicycle_bicycle" depart="1982.00">
        <route edges="MalSt_2_1 BynPl_1_1"/>
    </vehicle>
    <vehicle id="bicycle191" type="bicycle_bicycle" depart="1989.00">
        <route edges="TorPl_1_4 MalSt_1_1"/>
    </vehicle>
    <vehicle id="bicycle192" type="bicycle_bicycle" depart="2016.00">
        <route edges="BynPl_2_3 MalSt_1_1"/>
    </vehicle>
    <vehicle id="bicycle193" type="bicycle_bicycle" depart="2048.00">
        <route edges="MalSt_2_1 BynPl_1_1"/>
    </vehicle>
    <vehicle id="bicycle194" type="bicycle_bicycle" depart="2061.00">
        <route edges="TorPl_1_4 MalSt_1_1"/>
    </vehicle>
    <vehicle id="bicycle195" type="bicycle_bicycle" depart="2072.00">
        <route edges="TorPl_1_4 BynPl_1_1"/>
    </vehicle>
    <vehicle id="bicycle196" type="bicycle_bicycle" depart="2090.00">
        <route edges="MalSt_2_1 BynPl_1_1"/>
    </vehicle>
    <vehicle id="bicycle197" type="bicycle_bicycle" depart="2097.00">
        <route edges="MalSt_2_1 TorPl_2_1"/>
    </vehicle>
    <vehicle id="bicycle198" type="bicycle_bicycle" depart="2126.00">
        <route edges="TorPl_1_4 MalSt_1_1"/>
    </vehicle>
    <vehicle id="bicycle199" type="bicycle_bicycle" depart="2131.00">
        <route edges="BynPl_2_3 MalSt_1_1"/>
    </vehicle>
    <vehicle id="bicycle200" type="bicycle_bicycle" depart="2165.00">
        <route edges="MalSt_2_1 TorPl_2_1"/>
    </vehicle>
    <vehicle id="bicycle201" type="bicycle_bicycle" depart="2167.00">
        <route edges="BynPl_2_3 TorPl_2_1"/>
    </vehicle>
    <vehicle id="bicycle202" type="bicycle_bicycle" depart="2188.00">
        <route edges="TorPl_1_4 MalSt_1_1"/>
    </vehicle>
    <vehicle id="bicycle203" type="bicycle_bicycle" depart="2193.00">
        <route edges="MalSt_2_1 TorPl_2_1"/>
    </vehicle>
    <vehicle id="bicycle204" type="bicycle_bicycle" depart="2195.00">
        <route edges="BynPl_2_3 TorPl_2_1"/>
    </vehicle>
    <vehicle id="bicycle205" type="bicycle_bicycle" depart="2199.00">
        <route edges="TorPl_1_4 MalSt_1_1"/>
    </vehicle>
    <vehicle id="bicycle206" type="bicycle_bicycle" depart="2231.00">
        <route edges="BynPl_2_3 MalSt_1_1"/>
    </vehicle>
    <vehicle id="bicycle207" type="bicycle_bicycle" depart="2233.00">
        <route edges="MalSt_2_1 TorPl_2_1"/>
    </vehicle>
    <vehicle id="bicycle208" type="bicycle_bicycle" depart="2255.00">
        <route edges="TorPl_1_4 MalSt_1_1"/>
    </vehicle>
    <vehicle id="bicycle209" type="bicycle_bicycle" depart="2282.00">
        <route edges="MalSt_2_1 TorPl_2_1"/>
    </vehicle>
    <vehicle id="bicycle210" type="bicycle_bicycle" depart="2291.00">
        <route edges="BynPl_2_3 TorPl_2_1"/>
    </vehicle>
    <vehicle id="bicycle211" type="bicycle_bicycle" depart="2312.00">
        <route edges="TorPl_1_4 MalSt_1_1"/>
    </vehicle>
    <vehicle id="bicycle212" type="bicycle_bicycle" depart="2319.00">
        <route edges="BynPl_2_3 BynPl_1_1"/>
    </vehicle>
    <vehicle id="bicycle213" type="bicycle_bicycle" depart="2336.00">
        <route edges="BynPl_2_3 MalSt_1_1"/>
    </vehicle>
    <vehicle id="bicycle214" type="bicycle_bicycle" depart="2337.00">
        <route edges="TorPl_1_4 BynPl_1_1"/>
    </vehicle>
    <vehicle id="bicycle215" type="bicycle_bicycle" depart="2338.00">
        <route edges="MalSt_2_1 BynPl_1_1"/>
    </vehicle>
    <vehicle id="bicycle216" type="bicycle_bicycle" depart="2349.00">
        <route edges="BynPl_2_3 MalSt_1_1"/>
    </vehicle>
    <vehicle id="bicycle217" type="bicycle_bicycle" depart="2352.00">
        <route edges="BynPl_2_3 MalSt_1_1"/>
    </vehicle>
    <vehicle id="bicycle218" type="bicycle_bicycle" depart="2361.00">
        <route edges="BynPl_2_3 BynPl_1_1"/>
    </vehicle>
    <vehicle id="bicycle219" type="bicycle_bicycle" depart="2365.00">
        <route edges="MalSt_2_1 TorPl_2_1"/>
    </vehicle>
    <vehicle id="bicycle220" type="bicycle_bicycle" depart="2368.00">