<?xml version="1.0" encoding="UTF-8"?>

<!-- generated on 2025-12-26 14:03:22.170856 by Eclipse SUMO randomTrips.py UNKNOWN
<configuration>
    <net-file value="../networks/crossing/main.net.xml"/>
    <output-trip-file value="../routes/crossing/train/1000/bicycle.trips.xml"/>
    <route-file value="../routes/crossing/train/1000/bicycle.rou.xml"/>
    <prefix value="bicycle"/>
    <vehicle-class value="bicycle"/>
    <fringe-factor value="max"/>
    <seed value="1000"/>
    <period value="10.0"/>
    <binomial value="100"/>
</configuration>
-->

<!-- generated on 2025-12-26T14:03:22.164390+00:00 by Eclipse SUMO duarouter 1.25.0
<duarouterConfiguration xmlns:xsi="http://www.w3.org/2001/XMLSchema-instance" xsi:noNamespaceSchemaLocation="http://sumo.dlr.de/xsd/duarouterConfiguration.xsd">

    <input>
        <net-file value="../networks/crossing/main.net.xml"/>
        <route-files value="../routes/crossing/train/1000/bicycle.trips.xml"/>
    </input>

    <output>
        <output-file value="../routes/crossing/train/1000/bicycle.rou.xml"/>
        <alternatives-output value="NUL"/>
    </output>

    <time>
        <begin value="0"/>
        <end value="3600.0"/>
    </time>

    <report>
        <no-warnings value="true"/>
        <ignore-errors value="true"/>
        <no-step-log value="true"/>
    </report>

</duarouterConfiguration>
-->

<routes xmlns:xsi="http://www.w3.org/2001/XMLSchema-instance" xsi:noNamespaceSchemaLocation="http://sumo.dlr.de/xsd/routes_file.xsd">
    <vType id="bicycle_bicycle" vClass="bicycle"/>
    <vehicle id="bicycle0" type="bicycle_bicycle" depart="5.00">
        <route edges="BynPl_2_3 TorPl_2_1"/>
    </vehicle>
    <vehicle id="bicycle1" type="bicycle_bicycle" depart="13.00">
        <route edges="BynPl_2_3 BynPl_1_1"/>
    </vehicle>
    <vehicle id="bicycle2" type="bicycle_bicycle" depart="19.00">
        <route edges="BynPl_2_3 MalSt_1_1"/>
    </vehicle>
    <vehicle id="bicycle3" type="bicycle_bicycle" depart="23.00">
        <route edges="BynPl_2_3 BynPl_1_1"/>
    </vehicle>
    <vehicle id="bicycle4" type="bicycle_bicycle" depart="27.00">
        <route edges="BynPl_2_3 MalSt_1_1"/>
    </vehicle>
    <vehicle id="bicycle5" type="bicycle_bicycle" depart="31.00">
        <route edges="BynPl_2_3 TorPl_2_1"/>
    </vehicle>
    <vehicle id="bicycle6" type="bicycle_bicycle" depart="33.00">
        <route edges="MalSt_2_1 BynPl_1_1"/>
    </vehicle>
    <vehicle id="bicycle7" type="bicycle_bicycle" depart="33.00">
        <route edges="TorPl_1_4 MalSt_1_1"/>
    </vehicle>
    <vehicle id="bicycle8" type="bicycle_bicycle" depart="50.00">
        <route edges="TorPl_1_4 MalSt_1_1"/>
    </vehicle>
    <vehicle id="bicycle9" type="bicycle_bicycle" depart="58.00">
        <route edges="TorPl_1_4 MalSt_1_1"/>
    </vehicle>
    <vehicle id="bicycle10" type="bicycle_bicycle" depart="62.00">
        <route edges="BynPl_2_3 TorPl_2_1"/>
    </vehicle>
    <vehicle id="bicycle11" type="bicycle_bicycle" depart="74.00">
        <route edges="MalSt_2_1 TorPl_2_1"/>
    </vehicle>
    <vehicle id="bicycle12" type="bicycle_bicycle" depart="76.00">
        <route edges="TorPl_1_4 MalSt_1_1"/>
    </vehicle>
    <vehicle id="bicycle13" type="bicycle_bicycle" depart="85.00">
        <route edges="MalSt_2_1 TorPl_2_1"/>
    </vehicle>
    <vehicle id="bicycle14" type="bicycle_bicycle" depart="86.00">
        <route edges="BynPl_2_3 MalSt_1_1"/>
    </vehicle>
    <vehicle id="bicycle15" type="bicycle_bicycle" depart="91.00">
        <route edges="MalSt_2_1 BynPl_1_1"/>
    </vehicle>
    <vehicle id="bicycle16" type="bicycle_bicycle" depart="109.00">
        <route edges="TorPl_1_4 BynPl_1_1"/>
    </vehicle>
    <vehicle id="bicycle17" type="bicycle_bicycle" depart="111.00">
        <route edges="TorPl_1_4 MalSt_1_1"/>
    </vehicle>
    <vehicle id="bicycle18" type="bicycle_bicycle" depart="147.00">
        <route edges="MalSt_2_1 TorPl_2_1"/>
    </vehicle>
    <vehicle id="bicycle19" type="bicycle_bicycle" depart="148.00">
        <route edges="MalSt_2_1 TorPl_2_1"/>
    </vehicle>
    <vehicle id="bicycle20" type="bicycle_bicycle" depart="159.00">
        <route edges="MalSt_2_1 TorPl_2_1"/>
    </vehicle>
    <vehicle id="bicycle21" type="bicycle_bicycle" depart="160.00">
        <route edges="TorPl_1_4 BynPl_1_1"/>
    </vehicle>
    <vehicle id="bicycle22" type="bicycle_bicycle" depart="169.00">
        <route edges="BynPl_2_3 TorPl_2_1"/>
    </vehicle>
    <vehicle id="bicycle23" type="bicycle_bicycle" depart="185.00">
        <route edges="MalSt_2_1 BynPl_1_1"/>
    </vehicle>
    <vehicle id="bicycle24" type="bicycle_bicycle" depart="186.00">
        <route edges="BynPl_2_3 TorPl_2_1"/>
    </vehicle>
    <vehicle id="bicycle25" type="bicycle_bicycle" depart="212.00">
        <route edges="BynPl_2_3 TorPl_2_1"/>
    </vehicle>
    <vehicle id="bicycle26" type="bicycle_bicycle" depart="234.00">
        <route edges="BynPl_2_3 MalSt_1_1"/>
    </vehicle>
    <vehicle id="bicycle27" type="bicycle_bicycle" depart="244.00">
        <route edges="BynPl_2_3 BynPl_1_1"/>
    </vehicle>
    <vehicle id="bicycle28" type="bicycle_bicycle" depart="247.00">
        <route edges="MalSt_2_1 BynPl_1_1"/>
    </vehicle>
    <vehicle id="bicycle29" type="bicycle_bicycle" depart="247.00">
        <route edges="BynPl_2_3 TorPl_2_1"/>
    </vehicle>
    <vehicle id="bicycle30" type="bicycle_bicycle" depart="253.00">
        <route edges="MalSt_2_1 BynPl_1_1"/>
    </vehicle>
    <vehicle id="bicycle31" type="bicycle_bicycle" depart="261.00">
        <route edges="MalSt_2_1 TorPl_2_1"/>
    </vehicle>
    <vehicle id="bicycle32" type="bicycle_bicycle" depart="263.00">
        <route edges="MalSt_2_1 TorPl_2_1"/>
    </vehicle>
    <vehicle id="bicycle33" type="bicycle_bicycle" depart="272.00">
        <route edges="MalSt_2_1 TorPl_2_1"/>
    </vehicle>
    <vehicle id="bicycle34" type="bicycle_bicycle" depart="326.00">
        <route edges="BynPl_2_3 MalSt_1_1"/>
    </vehicle>
    <vehicle id="bicycle35" type="bicycle_bicycle" depart="335.00">
        <route edges="TorPl_1_4 MalSt_1_1"/>
    </vehicle>
    <vehicle id="bicycle36" type="bicycle_bicycle" depart="345.00">
        <route edges="MalSt_2_1 TorPl_2_1"/>
    </vehicle>
    <vehicle id="bicycle37" type="bicycle_bicycle" depart="347.00">
        <route edges="TorPl_1_4 BynPl_1_1"/>
    </vehicle>
    <vehicle id="bicycle38" type="bicycle_bicycle" depart="348.00">
        <route edges="MalSt_2_1 BynPl_1_1"/>
    </vehicle>
    <vehicle id="bicycle39" type="bicycle_bicycle" depart="356.00">
        <route edges="BynPl_2_3 BynPl_1_1"/>
    </vehicle>
    <vehicle id="bicycle40" type="bicycle_bicycle" depart="371.00">
        <route edges="TorPl_1_4 MalSt_1_1"/>
    </vehicle>
    <vehicle id="bicycle41" type="bicycle_bicycle" depart="376.00">
        <route edges="TorPl_1_4 MalSt_1_1"/>
    </vehicle>
    <vehicle id="bicycle42" type="bicycle_bicycle" depart="404.00">
        <route edges="BynPl_2_3 BynPl_1_1"/>
    </vehicle>
    <vehicle id="bicycle43" type="bicycle_bicycle" depart="430.00">
        <route edges="TorPl_1_4 MalSt_1_1"/>
    </vehicle>
    <vehicle id="bicycle44" type="bicycle_bicycle" depart="442.00">
        <route edges="TorPl_1_4 BynPl_1_1"/>
    </vehicle>
    <vehicle id="bicycle45" type="bicycle_bicycle" depart="446.00">
        <route edges="BynPl_2_3 MalSt_1_1"/>
    </vehicle>
    <vehicle id="bicycle46" type="bicycle_bicycle" depart="458.00">
        <route edges="MalSt_2_1 TorPl_2_1"/>
    </vehicle>
    <vehicle id="bicycle47" type="bicycle_bicycle" depart="466.00">
        <route edges="TorPl_1_4 BynPl_1_1"/>
    </vehicle>
    <vehicle id="bicycle48" type="bicycle_bicycle" depart="496.00">
        <route edges="BynPl_2_3 BynPl_1_1"/>
    </vehicle>
    <vehicle id="bicycle49" type="bicycle_bicycle" depart="509.00">
        <route edges="MalSt_2_1 TorPl_2_1"/>
    </vehicle>
    <vehicle id="bicycle50" type="bicycle_bicycle" depart="511.00">
        <route edges="MalSt_2_1 BynPl_1_1"/>
    </vehicle>
    <vehicle id="bicycle51" type="bicycle_bicycle" depart="530.00">
        <route edges="TorPl_1_4 MalSt_1_1"/>
    </vehicle>
    <vehicle id="bicycle52" type="bicycle_bicycle" depart="538.00">
        <route edges="BynPl_2_3 TorPl_2_1"/>
    </vehicle>
    <vehicle id="bicycle53" type="bicycle_bicycle" depart="563.00">
        <route edges="BynPl_2_3 TorPl_2_1"/>
    </vehicle>
    <vehicle id="bicycle54" type="bicycle_bicycle" depart="563.00">
        <route edges="BynPl_2_3 BynPl_1_1"/>
    </vehicle>
    <vehicle id="bicycle55" type="bicycle_bicycle" depart="580.00">
        <route edges="MalSt_2_1 TorPl_2_1"/>
    </vehicle>
    <vehicle id="bicycle56" type="bicycle_bicycle" depart="587.00">
        <route edges="BynPl_2_3 TorPl_2_1"/>
    </vehicle>
    <vehicle id="bicycle57" type="bicycle_bicycle" depart="606.00">
        <route edges="MalSt_2_1 TorPl_2_1"/>
    </vehicle>
    <vehicle id="bicycle58" type="bicycle_bicycle" depart="620.00">
        <route edges="MalSt_2_1 BynPl_1_1"/>
    </vehicle>
    <vehicle id="bicycle59" type="bicycle_bicycle" depart="625.00">
        <route edges="BynPl_2_3 TorPl_2_1"/>
    </vehicle>
    <vehicle id="bicycle60" type="bicycle_bicycle" depart="632.00">
        <route edges="BynPl_2_3 MalSt_1_1"/>
    </vehicle>
    <vehicle id="bicycle61" type="bicycle_bicycle" depart="634.00">
        <route edges="MalSt_2_1 BynPl_1_1"/>
    </vehicle>
    <vehicle id="bicycle62" type="bicycle_bicycle" depart="667.00">
        <route edges="TorPl_1_4 BynPl_1_1"/>
    </vehicle>
    <vehicle id="bicycle63" type="bicycle_bicycle" depart="673.00">
        <route edges="TorPl_1_4 MalSt_1_1"/>
    </vehicle>
    <vehicle id="bicycle64" type="bicycle_bicycle" depart="692.00">
        <route edges="MalSt_2_1 TorPl_2_1"/>
    </vehicle>
    <vehicle id="bicycle65" type="bicycle_bicycle" depart="694.00">
        <route edges="MalSt_2_1 TorPl_2_1"/>
    </vehicle>
    <vehicle id="bicycle66" type="bicycle_bicycle" depart="708.00">
        <route edges="BynPl_2_3 MalSt_1_1"/>
    </vehicle>
    <vehicle id="bicycle67" type="bicycle_bicycle" depart="709.00">
        <route edges="MalSt_2_1 BynPl_1_1"/>
    </vehicle>
    <vehicle id="bicycle68" type="bicycle_bicycle" depart="712.00">
        <route edges="BynPl_2_3 MalSt_1_1"/>
    </vehicle>
    <vehicle id="bicycle69" type="bicycle_bicycle" depart="712.00">
        <route edges="TorPl_1_4 BynPl_1_1"/>
    </vehicle>
    <vehicle id="bicycle70" type="bicycle_bicycle" depart="723.00">
        <route edges="BynPl_2_3 MalSt_1_1"/>
    </vehicle>
    <vehicle id="bicycle71" type="bicycle_bicycle" depart="727.00">
        <route edges="BynPl_2_3 TorPl_2_1"/>
    </vehicle>
    <vehicle id="bicycle72" type="bicycle_bicycle" depart="729.00">
        <route edges="BynPl_2_3 MalSt_1_1"/>
    </vehicle>
    <vehicle id="bicycle73" type="bicycle_bicycle" depart="745.00">
        <route edges="BynPl_2_3 TorPl_2_1"/>
    </vehicle>
    <vehicle id="bicycle74" type="bicycle_bicycle" depart="790.00">
        <route edges="BynPl_2_3 MalSt_1_1"/>
    </vehicle>
    <vehicle id="bicycle75" type="bicycle_bicycle" depart="793.00">
        <route edges="TorPl_1_4 BynPl_1_1"/>
    </vehicle>
    <vehicle id="bicycle76" type="bicycle_bicycle" depart="816.00">
        <route edges="TorPl_1_4 MalSt_1_1"/>
    </vehicle>
    <vehicle id="bicycle77" type="bicycle_bicycle" depart="816.00">
        <route edges="BynPl_2_3 MalSt_1_1"/>
    </vehicle>
    <vehicle id="bicycle78" type="bicycle_bicycle" depart="850.00">
        <route edges="MalSt_2_1 BynPl_1_1"/>
    </vehicle>
    <vehicle id="bicycle79" type="bicycle_bicycle" depart="867.00">
        <route edges="TorPl_1_4 MalSt_1_1"/>
    </vehicle>
    <vehicle id="bicycle80" type="bicycle_bicycle" depart="877.00">
        <route edges="BynPl_2_3 MalSt_1_1"/>
    </vehicle>
    <vehicle id="bicycle81" type="bicycle_bicycle" depart="880.00">
        <route edges="MalSt_2_1 BynPl_1_1"/>
    </vehicle>
    <vehicle id="bicycle82" type="bicycle_bicycle" depart="894.00">
        <route edges="MalSt_2_1 TorPl_2_1"/>
    </vehicle>
    <vehicle id="bicycle83" type="bicycle_bicycle" depart="902.00">
        <route edges="BynPl_2_3 BynPl_1_1"/>
    </vehicle>
    <vehicle id="bicycle84" type="bicycle_bicycle" depart="913.00">
        <route edges="MalSt_2_1 TorPl_2_1"/>
    </vehicle>
    <vehicle id="bicycle85" type="bicycle_bicycle" depart="932.00">
        <route edges="BynPl_2_3 MalSt_1_1"/>
    </vehicle>
    <vehicle id="bicycle86" type="bicycle_bicycle" depart="935.00">
        <route edges="MalSt_2_1 BynPl_1_1"/>
    </vehicle>
    <vehicle id="bicycle87" type="bicycle_bicycle" depart="938.00">
        <route edges="TorPl_1_4 BynPl_1_1"/>
    </vehicle>
    <vehicle id="bicycle88" type="bicycle_bicycle" depart="947.00">
        <route edges="BynPl_2_3 TorPl_2_1"/>
    </vehicle>
    <vehicle id="bicycle89" type="bicycle_bicycle" depart="951.00">
        <route edges="BynPl_2_3 TorPl_2_1"/>
    </vehicle>
    <vehicle id="bicycle90" type="bicycle_bicycle" depart="958.00">
        <route edges="BynPl_2_3 BynPl_1_1"/>
    </vehicle>
    <vehicle id="bicycle91" type="bicycle_bicycle" depart="963.00">
        <route edges="MalSt_2_1 TorPl_2_1"/>
    </vehicle>
    <vehicle id="bicycle92" type="bicycle_bicycle" depart="980.00">
        <route edges="TorPl_1_4 BynPl_1_1"/>
    </vehicle>
    <vehicle id="bicycle93" type="bicycle_bicycle" depart="984.00">
        <route edges="MalSt_2_1 TorPl_2_1"/>
    </vehicle>
    <vehicle id="bicycle94" type="bicycle_bicycle" depart="988.00">
        <route edges="MalSt_2_1 TorPl_2_1"/>
    </vehicle>
    <vehicle id="bicycle95" type="bicycle_bicycle" depart="988.00">
        <route edges="MalSt_2_1 BynPl_1_1"/>
    </vehicle>
    <vehicle id="bicycle96" type="bicycle_bicycle" depart="989.00">
        <route edges="BynPl_2_3 TorPl_2_1"/>
    </vehicle>
    <vehicle id="bicycle97" type="bicycle_bicycle" depart="990.00">
        <route edges="MalSt_2_1 BynPl_1_1"/>
    </vehicle>
    <vehicle id="bicycle98" type="bicycle_bicycle" depart="994.00">
        <route edges="TorPl_1_4 MalSt_1_1"/>
    </vehicle>
    <vehicle id="bicycle99" type="bicycle_bicycle" depart="1007.00">
        <route edges="BynPl_2_3 TorPl_2_1"/>
    </vehicle>
    <vehicle id="bicycle100" type="bicycle_bicycle" depart="1011.00">
        <route edges="BynPl_2_3 MalSt_1_1"/>
    </vehicle>
    <vehicle id="bicycle101" type="bicycle_bicycle" depart="1031.00">
        <route edges="MalSt_2_1 TorPl_2_1"/>
    </vehicle>
    <vehicle id="bicycle102" type="bicycle_bicycle" depart="1031.00">
        <route edges="BynPl_2_3 MalSt_1_1"/>
    </vehicle>
    <vehicle id="bicycle103" type="bicycle_bicycle" depart="1031.00">
        <route edges="MalSt_2_1 BynPl_1_1"/>
    </vehicle>
    <vehicle id="bicycle104" type="bicycle_bicycle" depart="1043.00">
        <route edges="MalSt_2_1 TorPl_2_1"/>
    </vehicle>
    <vehicle id="bicycle105" type="bicycle_bicycle" depart="1053.00">
        <route edges="TorPl_1_4 MalSt_1_1"/>
    </vehicle>
    <vehicle id="bicycle106" type="bicycle_bicycle" depart="1053.00">
        <route edges="BynPl_2_3 BynPl_1_1"/>
    </vehicle>
    <vehicle id="bicycle107" type="bicycle_bicycle" depart="1060.00">
        <route edges="BynPl_2_3 MalSt_1_1"/>
    </vehicle>
    <vehicle id="bicycle108" type="bicycle_bicycle" depart="1060.00">
        <route edges="BynPl_2_3 BynPl_1_1"/>
    </vehicle>
    <vehicle id="bicycle109" type="bicycle_bicycle" depart="1063.00">
        <route edges="BynPl_2_3 MalSt_1_1"/>
    </vehicle>
    <vehicle id="bicycle110" type="bicycle_bicycle" depart="1063.00">
        <route edges="BynPl_2_3 BynPl_1_1"/>
    </vehicle>
    <vehicle id="bicycle111" type="bicycle_bicycle" depart="1068.00">
        <route edges="TorPl_1_4 BynPl_1_1"/>
    </vehicle>
    <vehicle id="bicycle112" type="bicycle_bicycle" depart="1069.00">
        <route edges="BynPl_2_3 BynPl_1_1"/>
    </vehicle>
    <vehicle id="bicycle113" type="bicycle_bicycle" depart="1077.00">
        <route edges="TorPl_1_4 MalSt_1_1"/>
    </vehicle>
    <vehicle id="bicycle114" type="bicycle_bicycle" depart="1093.00">
        <route edges="MalSt_2_1 TorPl_2_1"/>
    </vehicle>
    <vehicle id="bicycle115" type="bicycle_bicycle" depart="1105.00">
        <route edges="MalSt_2_1 TorPl_2_1"/>
    </vehicle>
    <vehicle id="bicycle116" type="bicycle_bicycle" depart="1121.00">
        <route edges="BynPl_2_3 MalSt_1_1"/>
    </vehicle>
    <vehicle id="bicycle117" type="bicycle_bicycle" depart="1132.00">
        <route edges="MalSt_2_1 TorPl_2_1"/>
    </vehicle>
    <vehicle id="bicycle118" type="bicycle_bicycle" depart="1142.00">
        <route edges="TorPl_1_4 MalSt_1_1"/>
    </vehicle>
    <vehicle id="bicycle119" type="bicycle_bicycle" depart="1149.00">
        <route edges="BynPl_2_3 BynPl_1_1"/>
    </vehicle>
    <vehicle id="bicycle120" type="bicycle_bicycle" depart="1155.00">
        <route edges="MalSt_2_1 TorPl_2_1"/>
    </vehicle>
    <vehicle id="bicycle121" type="bicycle_bicycle" depart="1161.00">
        <route edges="TorPl_1_4 BynPl_1_1"/>
    </vehicle>
    <vehicle id="bicycle122" type="bicycle_bicycle" depart="1169.00">
        <route edges="MalSt_2_1 BynPl_1_1"/>
    </vehicle>
    <vehicle id="bicycle123" type="bicycle_bicycle" depart="1171.00">
        <route edges="MalSt_2_1 TorPl_2_1"/>
    </vehicle>
    <vehicle id="bicycle124" type="bicycle_bicycle" depart="1176.00">
        <route edges="TorPl_1_4 BynPl_1_1"/>
    </vehicle>
    <vehicle id="bicycle125" type="bicycle_bicycle" depart="1200.00">
        <route edges="BynPl_2_3 MalSt_1_1"/>
    </vehicle>
    <vehicle id="bicycle126" type="bicycle_bicycle" depart="1208.00">
        <route edges="BynPl_2_3 MalSt_1_1"/>
    </vehicle>
    <vehicle id="bicycle127" type="bicycle_bicycle" depart="1219.00">
        <route edges="BynPl_2_3 MalSt_1_1"/>
    </vehicle>
    <vehicle id="bicycle128" type="bicycle_bicycle" depart="1223.00">
        <route edges="MalSt_2_1 BynPl_1_1"/>
    </vehicle>
    <vehicle id="bicycle129" type="bicycle_bicycle" depart="1228.00">
        <route edges="BynPl_2_3 TorPl_2_1"/>
    </vehicle>
    <vehicle id="bicycle130" type="bicycle_bicycle" depart="1242.00">
        <route edges="BynPl_2_3 MalSt_1_1"/>
    </vehicle>
    <vehicle id="bicycle131" type="bicycle_bicycle" depart="1260.00">
        <route edges="BynPl_2_3 BynPl_1_1"/>
    </vehicle>
    <vehicle id="bicycle132" type="bicycle_bicycle" depart="1263.00">
        <route edges="MalSt_2_1 TorPl_2_1"/>
    </vehicle>
    <vehicle id="bicycle133" type="bicycle_bicycle" depart="1273.00">
        <route edges="TorPl_1_4 MalSt_1_1"/>
    </vehicle>
    <vehicle id="bicycle134" type="bicycle_bicycle" depart="1286.00">
        <route edges="BynPl_2_3 BynPl_1_1"/>
    </vehicle>
    <vehicle id="bicycle135" type="bicycle_bicycle" depart="1290.00">
        <route edges="TorPl_1_4 MalSt_1_1"/>
    </vehicle>
    <vehicle id="bicycle136" type="bicycle_bicycle" depart="1300.00">
        <route edges="BynPl_2_3 TorPl_2_1"/>
    </vehicle>
    <vehicle id="bicycle137" type="bicycle_bicycle" depart="1314.00">
        <route edges="TorPl_1_4 BynPl_1_1"/>
    </vehicle>
    <vehicle id="bicycle138" type="bicycle_bicycle" depart="1343.00">
        <route edges="BynPl_2_3 MalSt_1_1"/>
    </vehicle>
    <vehicle id="bicycle139" type="bicycle_bicycle" depart="1381.00">
        <route edges="BynPl_2_3 MalSt_1_1"/>
    </vehicle>
    <vehicle id="bicycle140" type="bicycle_bicycle" depart="1383.00">
        <route edges="BynPl_2_3 BynPl_1_1"/>
    </vehicle>
    <vehicle id="bicycle141" type="bicycle_bicycle" depart="1389.00">
        <route edges="BynPl_2_3 TorPl_2_1"/>
    </vehicle>
    <vehicle id="bicycle142" type="bicycle_bicycle" depart="1393.00">
        <route edges="BynPl_2_3 MalSt_1_1"/>
    </vehicle>
    <vehicle id="bicycle143" type="bicycle_bicycle" depart="1395.00">
        <route edges="TorPl_1_4 BynPl_1_1"/>
    </vehicle>
    <vehicle id="bicycle144" type="bicycle_bicycle" depart="1446.00">
        <route edges="TorPl_1_4 BynPl_1_1"/>
    </vehicle>
    <vehicle id="bicycle145" type="bicycle_bicycle" depart="1457.00">
        <route edges="BynPl_2_3 MalSt_1_1"/>
    </vehicle>
    <vehicle id="bicycle146" type="bicycle_bicycle" depart="1460.00">
        <route edges="MalSt_2_1 BynPl_1_1"/>
    </vehicle>
    <vehicle id="bicycle147" type="bicycle_bicycle" depart="1473.00">
        <route edges="TorPl_1_4 MalSt_1_1"/>
    </vehicle>
    <vehicle id="bicycle148" type="bicycle_bicycle" depart="1474.00">
        <route edges="BynPl_2_3 MalSt_1_1"/>
    </vehicle>
    <vehicle id="bicycle149" type="bicycle_bicycle" depart="1490.00">
        <route edges="MalSt_2_1 BynPl_1_1"/>
    </vehicle>
    <vehicle id="bicycle150" type="bicycle_bicycle" depart="1496.00">
        <route edges="MalSt_2_1 TorPl_2_1"/>
    </vehicle>
    <vehicle id="bicycle151" type="bicycle_bicycle" depart="1502.00">
        <route edges="TorPl_1_4 BynPl_1_1"/>
    </vehicle>
    <vehicle id="bicycle152" type="bicycle_bicycle" depart="1517.00">
        <route edges="BynPl_2_3 TorPl_2_1"/>
    </vehicle>
    <vehicle id="bicycle153" type="bicycle_bicycle" depart="1518.00">
        <route edges="TorPl_1_4 BynPl_1_1"/>
    </vehicle>
    <vehicle id="bicycle154" type="bicycle_bicycle" depart="1524.00">
        <route edges="BynPl_2_3 TorPl_2_1"/>
    </vehicle>
    <vehicle id="bicycle155" type="bicycle_bicycle" depart="1552.00">
        <route edges="MalSt_2_1 BynPl_1_1"/>
    </vehicle>
    <vehicle id="bicycle156" type="bicycle_bicycle" depart="1558.00">
        <route edges="BynPl_2_3 TorPl_2_1"/>
    </vehicle>
    <vehicle id="bicycle157" type="bicycle_bicycle" depart="1574.00">
        <route edges="MalSt_2_1 BynPl_1_1"/>
    </vehicle>
    <vehicle id="bicycle158" type="bicycle_bicycle" depart="1578.00">
        <route edges="BynPl_2_3 TorPl_2_1"/>
    </vehicle>
    <vehicle id="bicycle159" type="bicycle_bicycle" depart="1586.00">
        <route edges="MalSt_2_1 TorPl_2_1"/>
    </vehicle>
    <vehicle id="bicycle160" type="bicycle_bicycle" depart="1590.00">
        <route edges="BynPl_2_3 BynPl_1_1"/>
    </vehicle>
    <vehicle id="bicycle161" type="bicycle_bicycle" depart="1605.00">
        <route edges="MalSt_2_1 BynPl_1_1"/>
    </vehicle>
    <vehicle id="bicycle162" type="bicycle_bicycle" depart="1609.00">
        <route edges="BynPl_2_3 MalSt_1_1"/>
    </vehicle>
    <vehicle id="bicycle163" type="bicycle_bicycle" depart="1626.00">
        <route edges="TorPl_1_4 BynPl_1_1"/>
    </vehicle>
    <vehicle id="bicycle164" type="bicycle_bicycle" depart="1641.00">
        <route edges="BynPl_2_3 TorPl_2_1"/>
    </vehicle>
    <vehicle id="bicycle165" type="bicycle_bicycle" depart="1648.00">
        <route edges="MalSt_2_1 TorPl_2_1"/>
    </vehicle>
    <vehicle id="bicycle166" type="bicycle_bicycle" depart="1649.00">
        <route edges="TorPl_1_4 MalSt_1_1"/>
    </vehicle>
    <vehicle id="bicycle167" type="bicycle_bicycle" depart="1650.00">
        <route edges="MalSt_2_1 TorPl_2_1"/>
    </vehicle>
    <vehicle id="bicycle168" type="bicycle_bicycle" depart="1650.00">
        <route edges="BynPl_2_3 TorPl_2_1"/>
    </vehicle>
    <vehicle id="bicycle169" type="bicycle_bicycle" depart="1659.00">
        <route edges="BynPl_2_3 BynPl_1_1"/>
    </vehicle>
    <vehicle id="bicycle170" type="bicycle_bicycle" depart="1661.00">
        <route edges="TorPl_1_4 BynPl_1_1"/>
    </vehicle>
    <vehicle id="bicycle171" type="bicycle_bicycle" depart="1674.00">
        <route edges="MalSt_2_1 BynPl_1_1"/>
    </vehicle>
    <vehicle id="bicycle172" type="bicycle_bicycle" depart="1675.00">
        <route edges="MalSt_2_1 BynPl_1_1"/>
    </vehicle>
    <vehicle id="bicycle173" type="bicycle_bicycle" depart="1676.00">
        <route edges="MalSt_2_1 TorPl_2_1"/>
    </vehicle>
    <vehicle id="bicycle174" type="bicycle_bicycle" depart="1722.00">
        <route edges="MalSt_2_1 BynPl_1_1"/>
    </vehicle>
    <vehicle id="bicycle175" type="bicycle_bicycle" depart="1733.00">
        <route edges="BynPl_2_3 BynPl_1_1"/>
    </vehicle>
    <vehicle id="bicycle176" type="bicycle_bicycle" depart="1734.00">
        <route edges="TorPl_1_4 BynPl_1_1"/>
    </vehicle>
    <vehicle id="bicycle177" type="bicycle_bicycle" depart="1736.00">
        <route edges="MalSt_2_1 TorPl_2_1"/>
    </vehicle>
    <vehicle id="bicycle178" type="bicycle_bicycle" depart="1751.00">
        <route edges="BynPl_2_3 BynPl_1_1"/>
    </vehicle>
    <vehicle id="bicycle179" type="bicycle_bicycle" depart="1761.00">
        <route edges="MalSt_2_1 BynPl_1_1"/>
    </vehicle>
    <vehicle id="bicycle180" type="bicycle_bicycle" depart="1762.00">
        <route edges="MalSt_2_1 TorPl_2_1"/>
    </vehicle>
    <vehicle id="bicycle181" type="bicycle_bicycle" depart="1763.00">
        <route edges="TorPl_1_4 BynPl_1_1"/>
    </vehicle>
    <vehicle id="bicycle182" type="bicycle_bicycle" depart="1763.00">
        <route edges="BynPl_2_3 TorPl_2_1"/>
    </vehicle>
    <vehicle id="bicycle183" type="bicycle_bicycle" depart="1769.00">
        <route edges="MalSt_2_1 TorPl_2_1"/>
    </vehicle>
    <vehicle id="bicycle184" type="bicycle_bicycle" depart="1781.00">
        <route edges="BynPl_2_3 BynPl_1_1"/>
    </vehicle>
    <vehicle id="bicycle185" type="bicycle_bicycle" depart="1791.00">
        <route edges="BynPl_2_3 TorPl_2_1"/>
    </vehicle>
    <vehicle id="bicycle186" type="bicycle_bicycle" depart="1792.00">
        <route edges="BynPl_2_3 TorPl_2_1"/>
    </vehicle>
    <vehicle id="bicycle187" type="bicycle_bicycle" depart="1799.00">
        <route edges="BynPl_2_3 TorPl_2_1"/>
    </vehicle>
    <vehicle id="bicycle188" type="bicycle_bicycle" depart="1803.00">
        <route edges="MalSt_2_1 TorPl_2_1"/>
    </vehicle>
    <vehicle id="bicycle189" type="bicycle_bicycle" depart="1809.00">
        <route edges="TorPl_1_4 MalSt_1_1"/>
    </vehicle>
    <vehicle id="bicycle190" type="bicycle_bicycle" depart="1832.00">
        <route edges="BynPl_2_3 MalSt_1_1"/>
    </vehicle>
    <vehicle id="bicycle191" type="bicycle_bicycle" depart="1847.00">
        <route edges="MalSt_2_1 TorPl_2_1"/>
    </vehicle>
    <vehicle id="bicycle192" type="bicycle_bicycle" depart="1917.00">
        <route edges="TorPl_1_4 MalSt_1_1"/>
    </vehicle>
    <vehicle id="bicycle193" type="bicycle_bicycle" depart="1918.00">
        <route edges="MalSt_2_1 TorPl_2_1"/>
    </vehicle>
    <vehicle id="bicycle194" type="bicycle_bicycle" depart="1919.00">
        <route edges="MalSt_2_1 BynPl_1_1"/>
    </vehicle>
    <vehicle id="bicycle195" type="bicycle_bicycle" depart="1933.00">
        <route edges="BynPl_2_3 MalSt_1_1"/>
    </vehicle>
    <vehicle id="bicycle196" type="bicycle_bicycle" depart="1949.00">
        <route edges="BynPl_2_3 BynPl_1_1"/>
    </vehicle>
    <vehicle id="bicycle197" type="bicycle_bicycle" depart="1958.00">
        <route edges="BynPl_2_3 MalSt_1_1"/>
    </vehicle>
    <vehicle id="bicycle198" type="bicycle_bicycle" depart="1970.00">
        <route edges="MalSt_2_1 TorPl_2_1"/>
    </vehicle>
    <vehicle id="bicycle199" type="bicycle_bicycle" depart="1975.00">
        <route edges="BynPl_2_3 MalSt_1_1"/>
    </vehicle>
    <vehicle id="bicycle200" type="bicycle_bicycle" depart="1983.00">
        <route edges="BynPl_2_3 TorPl_2_1"/>
    </vehicle>
    <vehicle id="bicycle201" type="bicycle_bicycle" depart="1997.00">
        <route edges="TorPl_1_4 MalSt_1_1"/>
    </vehicle>
    <vehicle id="bicycle202" type="bicycle_bicycle" depart="1999.00">
        <route edges="BynPl_2_3 TorPl_2_1"/>
    </vehicle>
    <vehicle id="bicycle203" type="bicycle_bicycle" depart="1999.00">
        <route edges="MalSt_2_1 TorPl_2_1"/>
    </vehicle>
    <vehicle id="bicycle204" type="bicycle_bicycle" depart="2000.00">
        <route edges="BynPl_2_3 BynPl_1_1"/>
    </vehicle>
    <vehicle id="bicycle205" type="bicycle_bicycle" depart="2022.00">
        <route edges="TorPl_1_4 BynPl_1_1"/>
    </vehicle>
    <vehicle id="bicycle206" type="bicycle_bicycle" depart="2025.00">
        <route edges="BynPl_2_3 TorPl_2_1"/>
    </vehicle>
    <vehicle id="bicycle207" type="bicycle_bicycle" depart="2029.00">
        <route edges="MalSt_2_1 TorPl_2_1"/>
    </vehicle>
    <vehicle id="bicycle208" type="bicycle_bicycle" depart="2036.00">
        <route edges="MalSt_2_1 BynPl_1_1"/>
    </vehicle>
    <vehicle id="bicycle209" type="bicycle_bicycle" depart="2041.00">
        <route edges="TorPl_1_4 BynPl_1_1"/>
    </vehicle>
    <vehicle id="bicycle210" type="bicycle_bicycle" depart="2053.00">
        <route edges="TorPl_1_4 BynPl_1_1"/>
    </vehicle>
    <vehicle id="bicycle211" type="bicycle_bicycle" depart="2055.00">
        <route edges="MalSt_2_1 BynPl_1_1"/>
    </vehicle>
    <vehicle id="bicycle212" type="bicycle_bicycle" depart="2081.00">
        <route edges="TorPl_1_4 BynPl_1_1"/>
    </vehicle>
    <vehicle id="bicycle213" type="bicycle_bicycle" depart="2082.00">
        <route edges="TorPl_1_4 BynPl_1_1"/>
    </vehicle>
    <vehicle id="bicycle214" type="bicycle_bicycle" depart="2090.00">
        <route edges="TorPl_1_4 MalSt_1_1"/>
    </vehicle>
    <vehicle id="bicycle215" type="bicycle_bicycle" depart="2093.00">
        <route edges="MalSt_2_1 BynPl_1_1"/>
    </vehicle>
    <vehicle id="bicycle216" type="bicycle_bicycle" depart="2104.00">
        <route edges="BynPl_2_3 BynPl_1_1"/>
    </vehicle>
    <vehicle id="bicycle217" type="bicycle_bicycle" depart="2106.00">
        <route edges="BynPl_2_3 TorPl_2_1"/>
    </vehicle>
    <vehicle id="bicycle218" type="bicycle_bicycle" depart="2107.00">
        <route edges="BynPl_2_3 TorPl_2_1"/>
    </vehicle>
    <vehicle id="bicycle219" type="bicycle_bicycle" depart="2115.00">
        <route edges="BynPl_2_3 MalSt_1_1"/>
    </vehicle>
    <vehicle id="bicycle220" type="bicycle_bicycle" depart="2121.00">