<?xml version="1.0" encoding="UTF-8"?>

<!-- generated on 2025-12-27 10:43:03.219888 by Eclipse SUMO randomTrips.py UNKNOWN
<configuration>
    <net-file value="../networks/crossing/main.net.xml"/>
    <output-trip-file value="../routes/crossing/train/4/bicycle.trips.xml"/>
    <route-file value="../routes/crossing/train/4/bicycle.rou.xml"/>
    <prefix value="bicycle"/>
    <vehicle-class value="bicycle"/>
    <fringe-factor value="max"/>
    <seed value="4"/>
    <insertion-density value="100.0"/>
    <binomial value="100"/>
</configuration>
-->

<!-- generated on 2025-12-27T10:43:03.216967+00:00 by Eclipse SUMO duarouter 1.25.0
<duarouterConfiguration xmlns:xsi="http://www.w3.org/2001/XMLSchema-instance" xsi:noNamespaceSchemaLocation="http://sumo.dlr.de/xsd/duarouterConfiguration.xsd">

    <input>
        <net-file value="../networks/crossing/main.net.xml"/>
        <route-files value="../routes/crossing/train/4/bicycle.trips.xml"/>
    </input>

    <output>
        <output-file value="../routes/crossing/train/4/bicycle.rou.xml"/>
        <alternatives-output value="NUL"/>
    </output>

    <time>
        <begin value="0"/>
        <end value="3600.0"/>
    </time>

    <report>
        <no-warnings value="true"/>
        <ignore-errors value="true"/>
        <no-step-log value="true"/>
    </report>

</duarouterConfiguration>
-->

<routes xmlns:xsi="http://www.w3.org/2001/XMLSchema-instance" xsi:noNamespaceSchemaLocation="http://sumo.dlr.de/xsd/routes_file.xsd">
    <vType id="bicycle_bicycle" vClass="bicycle"/>
    <vehicle id="bicycle0" type="bicycle_bicycle" depart="27.00">
        <route edges="BynPl_2_3 TorPl_2_1"/>
    </vehicle>
    <vehicle id="bicycle1" type="bicycle_bicycle" depart="296.00">
        <route edges="TorPl_1_4 BynPl_1_1"/>
    </vehicle>
    <vehicle id="bicycle2" type="bicycle_bicycle" depart="502.00">
        <route edges="TorPl_1_4 MalSt_1_1"/>
    </vehicle>
    <vehicle id="bicycle3" type="bicycle_bicycle" depart="566.00">
        <route edges="MalSt_2_1 TorPl_2_1"/>
    </vehicle>
    <vehicle id="bicycle4" type="bicycle_bicycle" depart="615.00">
        <route edges="BynPl_2_3 TorPl_2_1"/>
    </vehicle>
    <vehicle id="bicycle5" type="bicycle_bicycle" depart="615.00">
        <route edges="BynPl_2_3 MalSt_1_1"/>
    </vehicle>
    <vehicle id="bicycle6" type="bicycle_bicycle" depart="673.00">
        <route edges="BynPl_2_3 TorPl_2_1"/>
    </vehicle>
    <vehicle id="bicycle7" type="bicycle_bicycle" depart="786.00">
        <route edges="TorPl_1_4 MalSt_1_1"/>
    </vehicle>
    <vehicle id="bicycle8" type="bicycle_bicycle" depart="871.00">
        <route edges="TorPl_1_4 MalSt_1_1"/>
    </vehicle>
    <vehicle id="bicycle9" type="bicycle_bicycle" depart="885.00">
        <route edges="TorPl_1_4 MalSt_1_1"/>
    </vehicle>
    <vehicle id="bicycle10" type="bicycle_bicycle" depart="946.00">
        <route edges="BynPl_2_3 BynPl_1_1"/>
    </vehicle>
    <vehicle id="bicycle11" type="bicycle_bicycle" depart="1139.00">
        <route edges="BynPl_2_3 BynPl_1_1"/>
    </vehicle>
    <vehicle id="bicycle12" type="bicycle_bicycle" depart="1176.00">
        <route edges="BynPl_2_3 MalSt_1_1"/>
    </vehicle>
    <vehicle id="bicycle13" type="bicycle_bicycle" depart="1240.00">
        <route edges="TorPl_1_4 BynPl_1_1"/>
    </vehicle>
    <vehicle id="bicycle14" type="bicycle_bicycle" depart="1293.00">
        <route edges="TorPl_1_4 MalSt_1_1"/>
    </vehicle>
    <vehicle id="bicycle15" type="bicycle_bicycle" depart="1311.00">
        <route edges="BynPl_2_3 MalSt_1_1"/>
    </vehicle>
    <vehicle id="bicycle16" type="bicycle_bicycle" depart="1398.00">
        <route edges="TorPl_1_4 MalSt_1_1"/>
    </vehicle>
    <vehicle id="bicycle17" type="bicycle_bicycle" depart="1502.00">
        <route edges="MalSt_2_1 BynPl_1_1"/>
    </vehicle>
    <vehicle id="bicycle18" type="bicycle_bicycle" depart="1545.00">
        <route edges="TorPl_1_4 BynPl_1_1"/>
    </vehicle>
    <vehicle id="bicycle19" type="bicycle_bicycle" depart="1627.00">
        <route edges="BynPl_2_3 BynPl_1_1"/>
    </vehicle>
    <vehicle id="bicycle20" type="bicycle_bicycle" depart="1740.00">
        <route edges="BynPl_2_3 TorPl_2_1"/>
    </vehicle>
    <vehicle id="bicycle21" type="bicycle_bicycle" depart="1885.00">
        <route edges="TorPl_1_4 BynPl_1_1"/>
    </vehicle>
    <vehicle id="bicycle22" type="bicycle_bicycle" depart="1987.00">
        <route edges="TorPl_1_4 MalSt_1_1"/>
    </vehicle>
    <vehicle id="bicycle23" type="bicycle_bicycle" depart="2047.00">
        <route edges="TorPl_1_4 BynPl_1_1"/>
    </vehicle>
    <vehicle id="bicycle24" type="bicycle_bicycle" depart="2108.00">
        <route edges="MalSt_2_1 TorPl_2_1"/>
    </vehicle>
    <vehicle id="bicycle25" type="bicycle_bicycle" depart="2137.00">
        <route edges="BynPl_2_3 TorPl_2_1"/>
    </vehicle>
    <vehicle id="bicycle26" type="bicycle_bicycle" depart="2284.00">
        <route edges="MalSt_2_1 TorPl_2_1"/>
    </vehicle>
    <vehicle id="bicycle27" type="bicycle_bicycle" depart="2341.00">
        <route edges="BynPl_2_3 MalSt_1_1"/>
    </vehicle>
    <vehicle id="bicycle28" type="bicycle_bicycle" depart="2358.00">
        <route edges="TorPl_1_4 BynPl_1_1"/>
    </vehicle>
    <vehicle id="bicycle29" type="bicycle_bicycle" depart="2469.00">
        <route edges="BynPl_2_3 BynPl_1_1"/>
    </vehicle>
    <vehicle id="bicycle30" type="bicycle_bicycle" depart="2509.00">
        <route edges="TorPl_1_4 BynPl_1_1"/>
    </vehicle>
    <vehicle id="bicycle31" type="bicycle_bicycle" depart="2629.00">
        <route edges="BynPl_2_3 BynPl_1_1"/>
    </vehicle>
    <vehicle id="bicycle32" type="bicycle_bicycle" depart="2740.00">
        <route edges="MalSt_2_1 BynPl_1_1"/>
    </vehicle>
    <vehicle id="bicycle33" type="bicycle_bicycle" depart="2793.00">
        <route edges="BynPl_2_3 TorPl_2_1"/>
    </vehicle>
    <vehicle id="bicycle34" type="bicycle_bicycle" depart="3030.00">
        <route edges="MalSt_2_1 BynPl_1_1"/>
    </vehicle>
    <vehicle id="bicycle35" type="bicycle_bicycle" depart="3175.00">
        <route edges="TorPl_1_4 MalSt_1_1"/>
    </vehicle>
    <vehicle id="bicycle36" type="bicycle_bicycle" depart="3240.00">
        <route edges="MalSt_2_1 BynPl_1_1"/>
    </vehicle>
    <vehicle id="bicycle37" type="bicycle_bicycle" depart="3403.00">
        <route edges="TorPl_1_4 BynPl_1_1"/>
    </vehicle>
    <vehicle id="bicycle38" type="bicycle_bicycle" depart="3562.00">
        <route edges="MalSt_2_1 TorPl_2_1"/>
    </vehicle>
    <vehicle id="bicycle39" type="bicycle_bicycle" depart="3583.00">
        <route edges="TorPl_1_4 BynPl_1_1"/>
    </vehicle>
</routes>
