<?xml version="1.0" encoding="UTF-8"?>

<!-- generated on 2025-12-26 14:03:27.727929 by Eclipse SUMO randomTrips.py UNKNOWN
<configuration>
    <net-file value="../networks/crossing/main.net.xml"/>
    <output-trip-file value="../routes/crossing/eval/7/car.trips.xml"/>
    <route-file value="../routes/crossing/eval/7/car.rou.xml"/>
    <prefix value="car"/>
    <fringe-factor value="max"/>
    <seed value="7"/>
    <period value="10.0"/>
    <binomial value="100"/>
</configuration>
-->

<!-- generated on 2025-12-26T14:03:27.722601+00:00 by Eclipse SUMO duarouter 1.25.0
<duarouterConfiguration xmlns:xsi="http://www.w3.org/2001/XMLSchema-instance" xsi:noNamespaceSchemaLocation="http://sumo.dlr.de/xsd/duarouterConfiguration.xsd">

    <input>
        <net-file value="../networks/crossing/main.net.xml"/>
        <route-files value="../routes/crossing/eval/7/car.trips.xml"/>
    </input>

    <output>
        <output-file value="../routes/crossing/eval/7/car.rou.xml"/>
        <alternatives-output value="NUL"/>
    </output>

    <time>
        <begin value="0"/>
        <end value="3600.0"/>
    </time>

    <report>
        <no-warnings value="true"/>
        <ignore-errors value="true"/>
        <no-step-log value="true"/>
    </report>

</duarouterConfiguration>
-->

<routes xmlns:xsi="http://www.w3.org/2001/XMLSchema-instance" xsi:noNamespaceSchemaLocation="http://sumo.dlr.de/xsd/routes_file.xsd">
    <vehicle id="car0" depart="1.00">
        <route edges="MalSt_2_1 BynPl_1_1"/>
    </vehicle>
    <vehicle id="car1" depart="6.00">
        <route edges="MalSt_2_1 BynPl_1_1"/>
    </vehicle>
    <vehicle id="car2" depart="23.00">
        <route edges="TorPl_1_4 BynPl_1_1"/>
    </vehicle>
    <vehicle id="car3" depart="30.00">
        <route edges="TorPl_1_4 BynPl_1_1"/>
    </vehicle>
    <vehicle id="car4" depart="34.00">
        <route edges="MalSt_2_1 BynPl_1_1"/>
    </vehicle>
    <vehicle id="car5" depart="41.00">
        <route edges="TorPl_1_4 BynPl_1_1"/>
    </vehicle>
    <vehicle id="car6" depart="58.00">
        <route edges="TorPl_1_4 BynPl_1_1"/>
    </vehicle>
    <vehicle id="car7" depart="63.00">
        <route edges="MalSt_2_1 BynPl_1_1"/>
    </vehicle>
    <vehicle id="car8" depart="72.00">
        <route edges="TorPl_1_4 BynPl_1_1"/>
    </vehicle>
    <vehicle id="car9" depart="85.00">
        <route edges="MalSt_2_1 BynPl_1_1"/>
    </vehicle>
    <vehicle id="car10" depart="90.00">
        <route edges="TorPl_1_4 BynPl_1_1"/>
    </vehicle>
    <vehicle id="car11" depart="97.00">
        <route edges="TorPl_1_4 BynPl_1_1"/>
    </vehicle>
    <vehicle id="car12" depart="107.00">
        <route edges="TorPl_1_4 BynPl_1_1"/>
    </vehicle>
    <vehicle id="car13" depart="109.00">
        <route edges="MalSt_2_1 BynPl_1_1"/>
    </vehicle>
    <vehicle id="car14" depart="114.00">
        <route edges="MalSt_2_1 BynPl_1_1"/>
    </vehicle>
    <vehicle id="car15" depart="135.00">
        <route edges="MalSt_2_1 BynPl_1_1"/>
    </vehicle>
    <vehicle id="car16" depart="136.00">
        <route edges="MalSt_2_1 BynPl_1_1"/>
    </vehicle>
    <vehicle id="car17" depart="145.00">
        <route edges="TorPl_1_4 BynPl_1_1"/>
    </vehicle>
    <vehicle id="car18" depart="186.00">
        <route edges="MalSt_2_1 BynPl_1_1"/>
    </vehicle>
    <vehicle id="car19" depart="189.00">
        <route edges="MalSt_2_1 BynPl_1_1"/>
    </vehicle>
    <vehicle id="car20" depart="191.00">
        <route edges="MalSt_2_1 BynPl_1_1"/>
    </vehicle>
    <vehicle id="car21" depart="202.00">
        <route edges="TorPl_1_4 BynPl_1_1"/>
    </vehicle>
    <vehicle id="car22" depart="220.00">
        <route edges="TorPl_1_4 BynPl_1_1"/>
    </vehicle>
    <vehicle id="car23" depart="233.00">
        <route edges="MalSt_2_1 BynPl_1_1"/>
    </vehicle>
    <vehicle id="car24" depart="236.00">
        <route edges="MalSt_2_1 BynPl_1_1"/>
    </vehicle>
    <vehicle id="car25" depart="238.00">
        <route edges="MalSt_2_1 BynPl_1_1"/>
    </vehicle>
    <vehicle id="car26" depart="241.00">
        <route edges="TorPl_1_4 BynPl_1_1"/>
    </vehicle>
    <vehicle id="car27" depart="250.00">
        <route edges="TorPl_1_4 BynPl_1_1"/>
    </vehicle>
    <vehicle id="car28" depart="254.00">
        <route edges="TorPl_1_4 BynPl_1_1"/>
    </vehicle>
    <vehicle id="car29" depart="256.00">
        <route edges="MalSt_2_1 BynPl_1_1"/>
    </vehicle>
    <vehicle id="car30" depart="262.00">
        <route edges="MalSt_2_1 BynPl_1_1"/>
    </vehicle>
    <vehicle id="car31" depart="263.00">
        <route edges="TorPl_1_4 BynPl_1_1"/>
    </vehicle>
    <vehicle id="car32" depart="266.00">
        <route edges="TorPl_1_4 BynPl_1_1"/>
    </vehicle>
    <vehicle id="car33" depart="268.00">
        <route edges="MalSt_2_1 BynPl_1_1"/>
    </vehicle>
    <vehicle id="car34" depart="301.00">
        <route edges="TorPl_1_4 BynPl_1_1"/>
    </vehicle>
    <vehicle id="car35" depart="309.00">
        <route edges="MalSt_2_1 BynPl_1_1"/>
    </vehicle>
    <vehicle id="car36" depart="323.00">
        <route edges="MalSt_2_1 BynPl_1_1"/>
    </vehicle>
    <vehicle id="car37" depart="325.00">
        <route edges="MalSt_2_1 BynPl_1_1"/>
    </vehicle>
    <vehicle id="car38" depart="329.00">
        <route edges="MalSt_2_1 BynPl_1_1"/>
    </vehicle>
    <vehicle id="car39" depart="352.00">
        <route edges="MalSt_2_1 BynPl_1_1"/>
    </vehicle>
    <vehicle id="car40" depart="353.00">
        <route edges="TorPl_1_4 BynPl_1_1"/>
    </vehicle>
    <vehicle id="car41" depart="356.00">
        <route edges="TorPl_1_4 BynPl_1_1"/>
    </vehicle>
    <vehicle id="car42" depart="372.00">
        <route edges="TorPl_1_4 BynPl_1_1"/>
    </vehicle>
    <vehicle id="car43" depart="379.00">
        <route edges="TorPl_1_4 BynPl_1_1"/>
    </vehicle>
    <vehicle id="car44" depart="410.00">
        <route edges="TorPl_1_4 BynPl_1_1"/>
    </vehicle>
    <vehicle id="car45" depart="415.00">
        <route edges="MalSt_2_1 BynPl_1_1"/>
    </vehicle>
    <vehicle id="car46" depart="417.00">
        <route edges="MalSt_2_1 BynPl_1_1"/>
    </vehicle>
    <vehicle id="car47" depart="430.00">
        <route edges="MalSt_2_1 BynPl_1_1"/>
    </vehicle>
    <vehicle id="car48" depart="432.00">
        <route edges="MalSt_2_1 BynPl_1_1"/>
    </vehicle>
    <vehicle id="car49" depart="443.00">
        <route edges="TorPl_1_4 BynPl_1_1"/>
    </vehicle>
    <vehicle id="car50" depart="447.00">
        <route edges="MalSt_2_1 BynPl_1_1"/>
    </vehicle>
    <vehicle id="car51" depart="448.00">
        <route edges="MalSt_2_1 BynPl_1_1"/>
    </vehicle>
    <vehicle id="car52" depart="460.00">
        <route edges="TorPl_1_4 BynPl_1_1"/>
    </vehicle>
    <vehicle id="car53" depart="470.00">
        <route edges="TorPl_1_4 BynPl_1_1"/>
    </vehicle>
    <vehicle id="car54" depart="474.00">
        <route edges="MalSt_2_1 BynPl_1_1"/>
    </vehicle>
    <vehicle id="car55" depart="480.00">
        <route edges="MalSt_2_1 BynPl_1_1"/>
    </vehicle>
    <vehicle id="car56" depart="483.00">
        <route edges="MalSt_2_1 BynPl_1_1"/>
    </vehicle>
    <vehicle id="car57" depart="489.00">
        <route edges="TorPl_1_4 BynPl_1_1"/>
    </vehicle>
    <vehicle id="car58" depart="496.00">
        <route edges="TorPl_1_4 BynPl_1_1"/>
    </vehicle>
    <vehicle id="car59" depart="500.00">
        <route edges="MalSt_2_1 BynPl_1_1"/>
    </vehicle>
    <vehicle id="car60" depart="523.00">
        <route edges="MalSt_2_1 BynPl_1_1"/>
    </vehicle>
    <vehicle id="car61" depart="540.00">
        <route edges="MalSt_2_1 BynPl_1_1"/>
    </vehicle>
    <vehicle id="car62" depart="547.00">
        <route edges="TorPl_1_4 BynPl_1_1"/>
    </vehicle>
    <vehicle id="car63" depart="548.00">
        <route edges="MalSt_2_1 BynPl_1_1"/>
    </vehicle>
    <vehicle id="car64" depart="557.00">
        <route edges="MalSt_2_1 BynPl_1_1"/>
    </vehicle>
    <vehicle id="car65" depart="560.00">
        <route edges="TorPl_1_4 BynPl_1_1"/>
    </vehicle>
    <vehicle id="car66" depart="562.00">
        <route edges="TorPl_1_4 BynPl_1_1"/>
    </vehicle>
    <vehicle id="car67" depart="576.00">
        <route edges="TorPl_1_4 BynPl_1_1"/>
    </vehicle>
    <vehicle id="car68" depart="597.00">
        <route edges="TorPl_1_4 BynPl_1_1"/>
    </vehicle>
    <vehicle id="car69" depart="613.00">
        <route edges="MalSt_2_1 BynPl_1_1"/>
    </vehicle>
    <vehicle id="car70" depart="617.00">
        <route edges="MalSt_2_1 BynPl_1_1"/>
    </vehicle>
    <vehicle id="car71" depart="623.00">
        <route edges="TorPl_1_4 BynPl_1_1"/>
    </vehicle>
    <vehicle id="car72" depart="627.00">
        <route edges="TorPl_1_4 BynPl_1_1"/>
    </vehicle>
    <vehicle id="car73" depart="629.00">
        <route edges="TorPl_1_4 BynPl_1_1"/>
    </vehicle>
    <vehicle id="car74" depart="630.00">
        <route edges="TorPl_1_4 BynPl_1_1"/>
    </vehicle>
    <vehicle id="car75" depart="633.00">
        <route edges="MalSt_2_1 BynPl_1_1"/>
    </vehicle>
    <vehicle id="car76" depart="650.00">
        <route edges="TorPl_1_4 BynPl_1_1"/>
    </vehicle>
    <vehicle id="car77" depart="671.00">
        <route edges="TorPl_1_4 BynPl_1_1"/>
    </vehicle>
    <vehicle id="car78" depart="698.00">
        <route edges="MalSt_2_1 BynPl_1_1"/>
    </vehicle>
    <vehicle id="car79" depart="699.00">
        <route edges="TorPl_1_4 BynPl_1_1"/>
    </vehicle>
    <vehicle id="car80" depart="720.00">
        <route edges="TorPl_1_4 BynPl_1_1"/>
    </vehicle>
    <vehicle id="car81" depart="722.00">
        <route edges="TorPl_1_4 BynPl_1_1"/>
    </vehicle>
    <vehicle id="car82" depart="737.00">
        <route edges="TorPl_1_4 BynPl_1_1"/>
    </vehicle>
    <vehicle id="car83" depart="738.00">
        <route edges="TorPl_1_4 BynPl_1_1"/>
    </vehicle>
    <vehicle id="car84" depart="744.00">
        <route edges="MalSt_2_1 BynPl_1_1"/>
    </vehicle>
    <vehicle id="car85" depart="747.00">
        <route edges="MalSt_2_1 BynPl_1_1"/>
    </vehicle>
    <vehicle id="car86" depart="761.00">
        <route edges="TorPl_1_4 BynPl_1_1"/>
    </vehicle>
    <vehicle id="car87" depart="773.00">
        <route edges="TorPl_1_4 BynPl_1_1"/>
    </vehicle>
    <vehicle id="car88" depart="773.00">
        <route edges="TorPl_1_4 BynPl_1_1"/>
    </vehicle>
    <vehicle id="car89" depart="795.00">
        <route edges="MalSt_2_1 BynPl_1_1"/>
    </vehicle>
    <vehicle id="car90" depart="796.00">
        <route edges="MalSt_2_1 BynPl_1_1"/>
    </vehicle>
    <vehicle id="car91" depart="806.00">
        <route edges="TorPl_1_4 BynPl_1_1"/>
    </vehicle>
    <vehicle id="car92" depart="816.00">
        <route edges="TorPl_1_4 BynPl_1_1"/>
    </vehicle>
    <vehicle id="car93" depart="822.00">
        <route edges="TorPl_1_4 BynPl_1_1"/>
    </vehicle>
    <vehicle id="car94" depart="832.00">
        <route edges="MalSt_2_1 BynPl_1_1"/>
    </vehicle>
    <vehicle id="car95" depart="845.00">
        <route edges="MalSt_2_1 BynPl_1_1"/>
    </vehicle>
    <vehicle id="car96" depart="860.00">
        <route edges="TorPl_1_4 BynPl_1_1"/>
    </vehicle>
    <vehicle id="car97" depart="865.00">
        <route edges="MalSt_2_1 BynPl_1_1"/>
    </vehicle>
    <vehicle id="car98" depart="893.00">
        <route edges="TorPl_1_4 BynPl_1_1"/>
    </vehicle>
    <vehicle id="car99" depart="897.00">
        <route edges="TorPl_1_4 BynPl_1_1"/>
    </vehicle>
    <vehicle id="car100" depart="898.00">
        <route edges="TorPl_1_4 BynPl_1_1"/>
    </vehicle>
    <vehicle id="car101" depart="905.00">
        <route edges="MalSt_2_1 BynPl_1_1"/>
    </vehicle>
    <vehicle id="car102" depart="907.00">
        <route edges="MalSt_2_1 BynPl_1_1"/>
    </vehicle>
    <vehicle id="car103" depart="918.00">
        <route edges="MalSt_2_1 BynPl_1_1"/>
    </vehicle>
    <vehicle id="car104" depart="929.00">
        <route edges="TorPl_1_4 BynPl_1_1"/>
    </vehicle>
    <vehicle id="car105" depart="943.00">
        <route edges="MalSt_2_1 BynPl_1_1"/>
    </vehicle>
    <vehicle id="car106" depart="944.00">
        <route edges="MalSt_2_1 BynPl_1_1"/>
    </vehicle>
    <vehicle id="car107" depart="960.00">
        <route edges="MalSt_2_1 BynPl_1_1"/>
    </vehicle>
    <vehicle id="car108" depart="973.00">
        <route edges="MalSt_2_1 BynPl_1_1"/>
    </vehicle>
    <vehicle id="car109" depart="990.00">
        <route edges="MalSt_2_1 BynPl_1_1"/>
    </vehicle>
    <vehicle id="car110" depart="1002.00">
        <route edges="MalSt_2_1 BynPl_1_1"/>
    </vehicle>
    <vehicle id="car111" depart="1025.00">
        <route edges="MalSt_2_1 BynPl_1_1"/>
    </vehicle>
    <vehicle id="car112" depart="1049.00">
        <route edges="TorPl_1_4 BynPl_1_1"/>
    </vehicle>
    <vehicle id="car113" depart="1065.00">
        <route edges="MalSt_2_1 BynPl_1_1"/>
    </vehicle>
    <vehicle id="car114" depart="1082.00">
        <route edges="MalSt_2_1 BynPl_1_1"/>
    </vehicle>
    <vehicle id="car115" depart="1088.00">
        <route edges="TorPl_1_4 BynPl_1_1"/>
    </vehicle>
    <vehicle id="car116" depart="1100.00">
        <route edges="TorPl_1_4 BynPl_1_1"/>
    </vehicle>
    <vehicle id="car117" depart="1107.00">
        <route edges="TorPl_1_4 BynPl_1_1"/>
    </vehicle>
    <vehicle id="car118" depart="1131.00">
        <route edges="TorPl_1_4 BynPl_1_1"/>
    </vehicle>
    <vehicle id="car119" depart="1146.00">
        <route edges="MalSt_2_1 BynPl_1_1"/>
    </vehicle>
    <vehicle id="car120" depart="1150.00">
        <route edges="MalSt_2_1 BynPl_1_1"/>
    </vehicle>
    <vehicle id="car121" depart="1156.00">
        <route edges="TorPl_1_4 BynPl_1_1"/>
    </vehicle>
    <vehicle id="car122" depart="1160.00">
        <route edges="TorPl_1_4 BynPl_1_1"/>
    </vehicle>
    <vehicle id="car123" depart="1161.00">
        <route edges="TorPl_1_4 BynPl_1_1"/>
    </vehicle>
    <vehicle id="car124" depart="1179.00">
        <route edges="TorPl_1_4 BynPl_1_1"/>
    </vehicle>
    <vehicle id="car125" depart="1185.00">
        <route edges="TorPl_1_4 BynPl_1_1"/>
    </vehicle>
    <vehicle id="car126" depart="1188.00">
        <route edges="MalSt_2_1 BynPl_1_1"/>
    </vehicle>
    <vehicle id="car127" depart="1190.00">
        <route edges="MalSt_2_1 BynPl_1_1"/>
    </vehicle>
    <vehicle id="car128" depart="1206.00">
        <route edges="TorPl_1_4 BynPl_1_1"/>
    </vehicle>
    <vehicle id="car129" depart="1217.00">
        <route edges="TorPl_1_4 BynPl_1_1"/>
    </vehicle>
    <vehicle id="car130" depart="1246.00">
        <route edges="TorPl_1_4 BynPl_1_1"/>
    </vehicle>
    <vehicle id="car131" depart="1249.00">
        <route edges="MalSt_2_1 BynPl_1_1"/>
    </vehicle>
    <vehicle id="car132" depart="1254.00">
        <route edges="TorPl_1_4 BynPl_1_1"/>
    </vehicle>
    <vehicle id="car133" depart="1255.00">
        <route edges="TorPl_1_4 BynPl_1_1"/>
    </vehicle>
    <vehicle id="car134" depart="1261.00">
        <route edges="MalSt_2_1 BynPl_1_1"/>
    </vehicle>
    <vehicle id="car135" depart="1270.00">
        <route edges="TorPl_1_4 BynPl_1_1"/>
    </vehicle>
    <vehicle id="car136" depart="1277.00">
        <route edges="MalSt_2_1 BynPl_1_1"/>
    </vehicle>
    <vehicle id="car137" depart="1292.00">
        <route edges="MalSt_2_1 BynPl_1_1"/>
    </vehicle>
    <vehicle id="car138" depart="1293.00">
        <route edges="TorPl_1_4 BynPl_1_1"/>
    </vehicle>
    <vehicle id="car139" depart="1294.00">
        <route edges="TorPl_1_4 BynPl_1_1"/>
    </vehicle>
    <vehicle id="car140" depart="1296.00">
        <route edges="TorPl_1_4 BynPl_1_1"/>
    </vehicle>
    <vehicle id="car141" depart="1305.00">
        <route edges="TorPl_1_4 BynPl_1_1"/>
    </vehicle>
    <vehicle id="car142" depart="1355.00">
        <route edges="TorPl_1_4 BynPl_1_1"/>
    </vehicle>
    <vehicle id="car143" depart="1358.00">
        <route edges="TorPl_1_4 BynPl_1_1"/>
    </vehicle>
    <vehicle id="car144" depart="1378.00">
        <route edges="MalSt_2_1 BynPl_1_1"/>
    </vehicle>
    <vehicle id="car145" depart="1381.00">
        <route edges="MalSt_2_1 BynPl_1_1"/>
    </vehicle>
    <vehicle id="car146" depart="1388.00">
        <route edges="MalSt_2_1 BynPl_1_1"/>
    </vehicle>
    <vehicle id="car147" depart="1399.00">
        <route edges="TorPl_1_4 BynPl_1_1"/>
    </vehicle>
    <vehicle id="car148" depart="1399.00">
        <route edges="TorPl_1_4 BynPl_1_1"/>
    </vehicle>
    <vehicle id="car149" depart="1418.00">
        <route edges="TorPl_1_4 BynPl_1_1"/>
    </vehicle>
    <vehicle id="car150" depart="1422.00">
        <route edges="MalSt_2_1 BynPl_1_1"/>
    </vehicle>
    <vehicle id="car151" depart="1424.00">
        <route edges="TorPl_1_4 BynPl_1_1"/>
    </vehicle>
    <vehicle id="car152" depart="1429.00">
        <route edges="TorPl_1_4 BynPl_1_1"/>
    </vehicle>
    <vehicle id="car153" depart="1433.00">
        <route edges="MalSt_2_1 BynPl_1_1"/>
    </vehicle>
    <vehicle id="car154" depart="1477.00">
        <route edges="TorPl_1_4 BynPl_1_1"/>
    </vehicle>
    <vehicle id="car155" depart="1482.00">
        <route edges="TorPl_1_4 BynPl_1_1"/>
    </vehicle>
    <vehicle id="car156" depart="1504.00">
        <route edges="TorPl_1_4 BynPl_1_1"/>
    </vehicle>
    <vehicle id="car157" depart="1506.00">
        <route edges="MalSt_2_1 BynPl_1_1"/>
    </vehicle>
    <vehicle id="car158" depart="1509.00">
        <route edges="TorPl_1_4 BynPl_1_1"/>
    </vehicle>
    <vehicle id="car159" depart="1512.00">
        <route edges="TorPl_1_4 BynPl_1_1"/>
    </vehicle>
    <vehicle id="car160" depart="1516.00">
        <route edges="TorPl_1_4 BynPl_1_1"/>
    </vehicle>
    <vehicle id="car161" depart="1534.00">
        <route edges="MalSt_2_1 BynPl_1_1"/>
    </vehicle>
    <vehicle id="car162" depart="1543.00">
        <route edges="TorPl_1_4 BynPl_1_1"/>
    </vehicle>
    <vehicle id="car163" depart="1549.00">
        <route edges="MalSt_2_1 BynPl_1_1"/>
    </vehicle>
    <vehicle id="car164" depart="1577.00">
        <route edges="MalSt_2_1 BynPl_1_1"/>
    </vehicle>
    <vehicle id="car165" depart="1585.00">
        <route edges="MalSt_2_1 BynPl_1_1"/>
    </vehicle>
    <vehicle id="car166" depart="1587.00">
        <route edges="TorPl_1_4 BynPl_1_1"/>
    </vehicle>
    <vehicle id="car167" depart="1596.00">
        <route edges="TorPl_1_4 BynPl_1_1"/>
    </vehicle>
    <vehicle id="car168" depart="1599.00">
        <route edges="MalSt_2_1 BynPl_1_1"/>
    </vehicle>
    <vehicle id="car169" depart="1616.00">
        <route edges="TorPl_1_4 BynPl_1_1"/>
    </vehicle>
    <vehicle id="car170" depart="1617.00">
        <route edges="MalSt_2_1 BynPl_1_1"/>
    </vehicle>
    <vehicle id="car171" depart="1621.00">
        <route edges="TorPl_1_4 BynPl_1_1"/>
    </vehicle>
    <vehicle id="car172" depart="1638.00">
        <route edges="TorPl_1_4 BynPl_1_1"/>
    </vehicle>
    <vehicle id="car173" depart="1656.00">
        <route edges="TorPl_1_4 BynPl_1_1"/>
    </vehicle>
    <vehicle id="car174" depart="1659.00">
        <route edges="MalSt_2_1 BynPl_1_1"/>
    </vehicle>
    <vehicle id="car175" depart="1678.00">
        <route edges="MalSt_2_1 BynPl_1_1"/>
    </vehicle>
    <vehicle id="car176" depart="1691.00">
        <route edges="MalSt_2_1 BynPl_1_1"/>
    </vehicle>
    <vehicle id="car177" depart="1698.00">
        <route edges="TorPl_1_4 BynPl_1_1"/>
    </vehicle>
    <vehicle id="car178" depart="1720.00">
        <route edges="MalSt_2_1 BynPl_1_1"/>
    </vehicle>
    <vehicle id="car179" depart="1723.00">
        <route edges="MalSt_2_1 BynPl_1_1"/>
    </vehicle>
    <vehicle id="car180" depart="1733.00">
        <route edges="MalSt_2_1 BynPl_1_1"/>
    </vehicle>
    <vehicle id="car181" depart="1734.00">
        <route edges="MalSt_2_1 BynPl_1_1"/>
    </vehicle>
    <vehicle id="car182" depart="1735.00">
        <route edges="MalSt_2_1 BynPl_1_1"/>
    </vehicle>
    <vehicle id="car183" depart="1735.00">
        <route edges="TorPl_1_4 BynPl_1_1"/>
    </vehicle>
    <vehicle id="car184" depart="1747.00">
        <route edges="TorPl_1_4 BynPl_1_1"/>
    </vehicle>
    <vehicle id="car185" depart="1748.00">
        <route edges="TorPl_1_4 BynPl_1_1"/>
    </vehicle>
    <vehicle id="car186" depart="1754.00">
        <route edges="MalSt_2_1 BynPl_1_1"/>
    </vehicle>
    <vehicle id="car187" depart="1776.00">
        <route edges="MalSt_2_1 BynPl_1_1"/>
    </vehicle>
    <vehicle id="car188" depart="1789.00">
        <route edges="MalSt_2_1 BynPl_1_1"/>
    </vehicle>
    <vehicle id="car189" depart="1796.00">
        <route edges="MalSt_2_1 BynPl_1_1"/>
    </vehicle>
    <vehicle id="car190" depart="1798.00">
        <route edges="MalSt_2_1 BynPl_1_1"/>
    </vehicle>
    <vehicle id="car191" depart="1799.00">
        <route edges="TorPl_1_4 BynPl_1_1"/>
    </vehicle>
    <vehicle id="car192" depart="1804.00">
        <route edges="MalSt_2_1 BynPl_1_1"/>
    </vehicle>
    <vehicle id="car193" depart="1808.00">
        <route edges="TorPl_1_4 BynPl_1_1"/>
    </vehicle>
    <vehicle id="car194" depart="1844.00">
        <route edges="TorPl_1_4 BynPl_1_1"/>
    </vehicle>
    <vehicle id="car195" depart="1848.00">
        <route edges="TorPl_1_4 BynPl_1_1"/>
    </vehicle>
    <vehicle id="car196" depart="1851.00">
        <route edges="TorPl_1_4 BynPl_1_1"/>
    </vehicle>
    <vehicle id="car197" depart="1865.00">
        <route edges="TorPl_1_4 BynPl_1_1"/>
    </vehicle>
    <vehicle id="car198" depart="1867.00">
        <route edges="MalSt_2_1 BynPl_1_1"/>
    </vehicle>
    <vehicle id="car199" depart="1876.00">
        <route edges="TorPl_1_4 BynPl_1_1"/>
    </vehicle>
    <vehicle id="car200" depart="1883.00">
        <route edges="MalSt_2_1 BynPl_1_1"/>
    </vehicle>
    <vehicle id="car201" depart="1894.00">
        <route edges="TorPl_1_4 BynPl_1_1"/>
    </vehicle>
    <vehicle id="car202" depart="1903.00">
        <route edges="TorPl_1_4 BynPl_1_1"/>
    </vehicle>
    <vehicle id="car203" depart="1909.00">
        <route edges="TorPl_1_4 BynPl_1_1"/>
    </vehicle>
    <vehicle id="car204" depart="1911.00">
        <route edges="TorPl_1_4 BynPl_1_1"/>
    </vehicle>
    <vehicle id="car205" depart="1920.00">
        <route edges="TorPl_1_4 BynPl_1_1"/>
    </vehicle>
    <vehicle id="car206" depart="1933.00">
        <route edges="MalSt_2_1 BynPl_1_1"/>
    </vehicle>
    <vehicle id="car207" depart="1964.00">
        <route edges="MalSt_2_1 BynPl_1_1"/>
    </vehicle>
    <vehicle id="car208" depart="1984.00">
        <route edges="TorPl_1_4 BynPl_1_1"/>
    </vehicle>
    <vehicle id="car209" depart="1991.00">
        <route edges="TorPl_1_4 BynPl_1_1"/>
    </vehicle>
    <vehicle id="car210" depart="1998.00">
        <route edges="TorPl_1_4 BynPl_1_1"/>
    </vehicle>
    <vehicle id="car211" depart="2005.00">
        <route edges="TorPl_1_4 BynPl_1_1"/>
    </vehicle>
    <vehicle id="car212" depart="2006.00">
        <route edges="TorPl_1_4 BynPl_1_1"/>
    </vehicle>
    <vehicle id="car213" depart="2006.00">
        <route edges="MalSt_2_1 BynPl_1_1"/>
    </vehicle>
    <vehicle id="car214" depart="2034.00">
        <route edges="TorPl_1_4 BynPl_1_1"/>
    </vehicle>
    <vehicle id="car215" depart="2035.00">
        <route edges="MalSt_2_1 BynPl_1_1"/>
    </vehicle>
    <vehicle id="car216" depart="2044.00">
        <route edges="TorPl_1_4 BynPl_1_1"/>
    </vehicle>
    <vehicle id="car217" depart="2045.00">
        <route edges="TorPl_1_4 BynPl_1_1"/>
    </vehicle>
    <vehicle id="car218" depart="2049.00">
        <route edges="TorPl_1_4 BynPl_1_1"/>
    </vehicle>
    <vehicle id="car219" depart="2070.00">
        <route edges="TorPl_1_4 BynPl_1_1"/>
    </vehicle>
    <vehicle id="car220" depart="2075.00">
        <route edges="TorPl_1_4 BynPl_1_1"/>
    </vehicle>
    <vehicle id="car221" depart="2089.00">
        <route edges="TorPl_1_4 BynPl_1_1"/>
    </vehicle>
    <vehicle id="car222" depart="2101.00">
        <route edges="MalSt_2_1 BynPl_1_1"/>
    </vehicle>
    <vehicle id="car223" depart="2105.00">
        <route edges="MalSt_2_1 BynPl_1_1"/>
    </vehicle>
    <vehicle id="car224" depart="2106.00">
        <route edges="TorPl_1_4 BynPl_1_1"/>
    </vehicle>
    <vehicle id="car225" depart="2113.00">
        <route edges="MalSt_2_1 BynPl_1_1"/>
    </vehicle>
    <vehicle id="car226" depart="2123.00">
        <route edges="TorPl_1_4 BynPl_1_1"/>
    </vehicle>
    <vehicle id="car227" depart="2132.00">
        <route edges="TorPl_1_4 BynPl_1_1"/>
    </vehicle>
    <vehicle id="car228" depart="2135.00">
        <route edges="MalSt_2_1 BynPl_1_1"/>
    </vehicle>
    <vehicle id="car229" depart="2152.00">
        <route edges="MalSt_2_1 BynPl_1_1"/>
    </vehicle>
    <vehicle id="car230" depart="2152.00">
        <route edges="TorPl_1_4 BynPl_1_1"/>
    </vehicle>
    <vehicle id="car231" depart="2155.00">
        <route edges="MalSt_2_1 BynPl_1_1"/>
    </vehicle>
    <vehicle id="car232" depart="2159.00">
        <route edges="TorPl_1_4 BynPl_1_1"/>
    </vehicle>
    <vehicle id="car233" depart="2165.00">
        <route edges="MalSt_2_1 BynPl_1_1"/>
    </vehicle>
    <vehicle id="car234" depart="2172.00">
        <route edges="TorPl_1_4 BynPl_1_1"/>
    </vehicle>
    <vehicle id="car235" depart="2178.00">
        <route edges="MalSt_2_1 BynPl_1_1"/>
    </vehicle>
    <vehicle id="car236" depart="2189.00">
        <route edges="TorPl_1_4 BynPl_1_1"/>
    </vehicle>
    <vehicle id="car237" depart="2190.00">
        <route edges="TorPl_1_4 BynPl_1_1"/>
    </vehicle>
    <vehicle id="car238" depart="2221.00">
        <route edges="MalSt_2_1 BynPl_1_1"/>
    </vehicle>
    <vehicle id="car239" depart="2229.00">
        <route edges="TorPl_1_4 BynPl_1_1"/>
    </vehicle>
    <vehicle id="car240" depart="2232.00">
        <route edges="MalSt_2_1 BynPl_1_1"/>
    </vehicle>
    <vehicle id="car241" depart="2234.00">
        <route edges="TorPl_1_4 BynPl_1_1"/>
    </vehicle>
    <vehicle id="car242" depart="2247.00">
        <route edges="MalSt_2_1 BynPl_1_1"/>
    </vehicle>
    <vehicle id="car243" depart="2251.00">
        <route edges="MalSt_2_1 BynPl_1_1"/>
    </vehicle>
    <vehicle id="car244" depart="2273.00">
        <route edges="MalSt_2_1 BynPl_1_1"/>
    </vehicle>
    <vehicle id="car245" depart="2289.00">
        <route edges="TorPl_1_4 BynPl_1_1"/>
    </vehicle>
    <vehicle id="car246" depart="2290.00">
        <route edges="TorPl_1_4 BynPl_1_1"/>
    </vehicle>
    <vehicle id="car247" depart="2315.00">
        <route edges="MalSt_2_1 BynPl_1_1"/>
    </vehicle>
    <vehicle id="car248" depart="2356.00">
        <route edges="MalSt_2_1 BynPl_1_1"/>
    </vehicle>
    <vehicle id="car249" depart="2357.00">
        <route edges="TorPl_1_4 BynPl_1_1"/>
    </vehicle>
    <vehicle id="car250" depart="2374.00">
        <route edges="TorPl_1_4 BynPl_1_1"/>
    </vehicle>
    <vehicle id="car251" depart="2397.00">
        <route edges="TorPl_1_4 BynPl_1_1"/>
    </vehicle>
    <vehicle id="car252" depart="2438.00">
        <route edges="MalSt_2_1 BynPl_1_1"/>
    </vehicle>
    <vehicle id="car253" depart="2445.00">
        <route edges="TorPl_1_4 BynPl_1_1"/>
    </vehicle>
    <vehicle id="car254" depart="2474.00">
        <route edges="MalSt_2_1 BynPl_1_1"/>
    </vehicle>
    <vehicle id="car255" depart="2476.00">
        <route edges="MalSt_2_1 BynPl_1_1"/>
    </vehicle>
    <vehicle id="car256" depart="2480.00">
        <route edges="MalSt_2_1 BynPl_1_1"/>
    </vehicle>
    <vehicle id="car257" depart="2482.00">
        <route edges="TorPl_1_4 BynPl_1_1"/>
    </vehicle>
    <vehicle id="car258" depart="2500.00">
        <route edges="TorPl_1_4 BynPl_1_1"/>
    </vehicle>
    <vehicle id="car259" depart="2504.00">
        <route edges="MalSt_2_1 BynPl_1_1"/>
    </vehicle>
    <vehicle id="car260" depart="2505.00">
        <route edges="TorPl_1_4 BynPl_1_1"/>
    </vehicle>
    <vehicle id="car261" depart="2530.00">
        <route edges="TorPl_1_4 BynPl_1_1"/>
    </vehicle>
    <vehicle id="car262" depart="2533.00">
        <route edges="TorPl_1_4 BynPl_1_1"/>
    </vehicle>
    <vehicle id="car263" depart="2545.00">
        <route edges="MalSt_2_1 BynPl_1_1"/>
    </vehicle>
    <vehicle id="car264" depart="2549.00">
        <route edges="MalSt_2_1 BynPl_1_1"/>
    </vehicle>
    <vehicle id="car265" depart="2558.00">
        <route edges="TorPl_1_4 BynPl_1_1"/>
    </vehicle>
    <vehicle id="car266" depart="2564.00">
        <route edges="MalSt_2_1 BynPl_1_1"/>
    </vehicle>
    <vehicle id="car267" depart="2594.00">
        <route edges="MalSt_2_1 BynPl_1_1"/>
    </vehicle>
    <vehicle id="car268" depart="2595.00">
        <route edges="TorPl_1_4 BynPl_1_1"/>
    </vehicle>
    <vehicle id="car269" depart="2597.00">
        <route edges="MalSt_2_1 BynPl_1_1"/>
    </vehicle>
    <vehicle id="car270" depart="2607.00">
        <route edges="MalSt_2_1 BynPl_1_1"/>
    </vehicle>
    <vehicle id="car271" depart="2619.00">
        <route edges="MalSt_2_1 BynPl_1_1"/>
    </vehicle>
    <vehicle id="car272" depart="2619.00">
        <route edges="TorPl_1_4 BynPl_1_1"/>
    </vehicle>
    <vehicle id="car273" depart="2619.00">
        <route edges="MalSt_2_1 BynPl_1_1"/>
    </vehicle>
    <vehicle id="car274" depart="2626.00">
        <route edges="TorPl_1_4 BynPl_1_1"/>
    </vehicle>
    <vehicle id="car275" depart="2657.00">
        <route edges="MalSt_2_1 BynPl_1_1"/>
    </vehicle>
    <vehicle id="car276" depart="2661.00">
        <route edges="MalSt_2_1 BynPl_1_1"/>
    </vehicle>
    <vehicle id="car277" depart="2677.00">
        <route edges="MalSt_2_1 BynPl_1_1"/>
    </vehicle>
    <vehicle id="car278" depart="2683.00">
        <route edges="TorPl_1_4 BynPl_1_1"/>
    </vehicle>
    <vehicle id="car279" depart="2697.00">