<?xml version="1.0" encoding="UTF-8"?>

<!-- generated on 2025-12-29 11:55:38.832665 by Eclipse SUMO randomTrips.py UNKNOWN
<configuration>
    <net-file value="../networks/crossing/main.net.xml"/>
    <output-trip-file value="../routes/crossing/eval/50/car.trips.xml"/>
    <route-file value="../routes/crossing/eval/50/car.rou.xml"/>
    <prefix value="car"/>
    <fringe-factor value="max"/>
    <seed value="50"/>
    <insertion-density value="50.0"/>
    <binomial value="100"/>
</configuration>
-->

<!-- generated on 2025-12-29T11:55:38.830073+00:00 by Eclipse SUMO duarouter 1.25.0
<duarouterConfiguration xmlns:xsi="http://www.w3.org/2001/XMLSchema-instance" xsi:noNamespaceSchemaLocation="http://sumo.dlr.de/xsd/duarouterConfiguration.xsd">

    <input>
        <net-file value="../networks/crossing/main.net.xml"/>
        <route-files value="../routes/crossing/eval/50/car.trips.xml"/>
    </input>

    <output>
        <output-file value="../routes/crossing/eval/50/car.rou.xml"/>
        <alternatives-output value="NUL"/>
    </output>

    <time>
        <begin value="0"/>
        <end value="3600.0"/>
    </time>

    <report>
        <no-warnings value="true"/>
        <ignore-errors value="true"/>
        <no-step-log value="true"/>
    </report>

</duarouterConfiguration>
-->

<routes xmlns:xsi="http://www.w3.org/2001/XMLSchema-instance" xsi:noNamespaceSchemaLocation="http://sumo.dlr.de/xsd/routes_file.xsd">
    <vehicle id="car0" depart="42.00">
        <route edges="TorPl_1_4 BynPl_1_1"/>
    </vehicle>
    <vehicle id="car1" depart="181.00">
        <route edges="TorPl_1_4 BynPl_1_1"/>
    </vehicle>
    <vehicle id="car2" depart="368.00">
        <route edges="MalSt_2_1 BynPl_1_1"/>
    </vehicle>
    <vehicle id="car3" depart="691.00">
        <route edges="TorPl_1_4 BynPl_1_1"/>
    </vehicle>
    <vehicle id="car4" depart="866.00">
        <route edges="MalSt_2_1 BynPl_1_1"/>
    </vehicle>
    <vehicle id="car5" depart="1005.00">
        <route edges="TorPl_1_4 BynPl_1_1"/>
    </vehicle>
    <vehicle id="car6" depart="1150.00">
        <route edges="MalSt_2_1 BynPl_1_1"/>
    </vehicle>
    <vehicle id="car7" depart="1164.00">
        <route edges="MalSt_2_1 BynPl_1_1"/>
    </vehicle>
    <vehicle id="car8" depart="1554.00">
        <route edges="MalSt_2_1 BynPl_1_1"/>
    </vehicle>
    <vehicle id="car9" depart="1758.00">
        <route edges="TorPl_1_4 BynPl_1_1"/>
    </vehicle>
    <vehicle id="car10" depart="1996.00">
        <route edges="MalSt_2_1 BynPl_1_1"/>
    </vehicle>
    <vehicle id="car11" depart="2042.00">
        <route edges="MalSt_2_1 BynPl_1_1"/>
    </vehicle>
    <vehicle id="car12" depart="2296.00">
        <route edges="MalSt_2_1 BynPl_1_1"/>
    </vehicle>
    <vehicle id="car13" depart="2601.00">
        <route edges="TorPl_1_4 BynPl_1_1"/>
    </vehicle>
    <vehicle id="car14" depart="2627.00">
        <route edges="MalSt_2_1 BynPl_1_1"/>
    </vehicle>
    <vehicle id="car15" depart="2904.00">
        <route edges="MalSt_2_1 BynPl_1_1"/>
    </vehicle>
    <vehicle id="car16" depart="2964.00">
        <route edges="TorPl_1_4 BynPl_1_1"/>
    </vehicle>
    <vehicle id="car17" depart="3090.00">
        <route edges="TorPl_1_4 BynPl_1_1"/>
    </vehicle>
</routes>
