<?xml version="1.0" encoding="UTF-8"?>

<!-- generated on 2025-12-27 10:43:02.868642 by Eclipse SUMO randomTrips.py UNKNOWN
<configuration>
    <net-file value="../networks/crossing/main.net.xml"/>
    <output-trip-file value="../routes/crossing/train/4/car.trips.xml"/>
    <route-file value="../routes/crossing/train/4/car.rou.xml"/>
    <prefix value="car"/>
    <fringe-factor value="max"/>
    <seed value="4"/>
    <insertion-density value="100.0"/>
    <binomial value="100"/>
</configuration>
-->

<!-- generated on 2025-12-27T10:43:02.865906+00:00 by Eclipse SUMO duarouter 1.25.0
<duarouterConfiguration xmlns:xsi="http://www.w3.org/2001/XMLSchema-instance" xsi:noNamespaceSchemaLocation="http://sumo.dlr.de/xsd/duarouterConfiguration.xsd">

    <input>
        <net-file value="../networks/crossing/main.net.xml"/>
        <route-files value="../routes/crossing/train/4/car.trips.xml"/>
    </input>

    <output>
        <output-file value="../routes/crossing/train/4/car.rou.xml"/>
        <alternatives-output value="NUL"/>
    </output>

    <time>
        <begin value="0"/>
        <end value="3600.0"/>
    </time>

    <report>
        <no-warnings value="true"/>
        <ignore-errors value="true"/>
        <no-step-log value="true"/>
    </report>

</duarouterConfiguration>
-->

<routes xmlns:xsi="http://www.w3.org/2001/XMLSchema-instance" xsi:noNamespaceSchemaLocation="http://sumo.dlr.de/xsd/routes_file.xsd">
    <vehicle id="car0" depart="63.00">
        <route edges="MalSt_2_1 BynPl_1_1"/>
    </vehicle>
    <vehicle id="car1" depart="426.00">
        <route edges="MalSt_2_1 BynPl_1_1"/>
    </vehicle>
    <vehicle id="car2" depart="525.00">
        <route edges="TorPl_1_4 BynPl_1_1"/>
    </vehicle>
    <vehicle id="car3" depart="716.00">
        <route edges="TorPl_1_4 BynPl_1_1"/>
    </vehicle>
    <vehicle id="car4" depart="859.00">
        <route edges="MalSt_2_1 BynPl_1_1"/>
    </vehicle>
    <vehicle id="car5" depart="943.00">
        <route edges="MalSt_2_1 BynPl_1_1"/>
    </vehicle>
    <vehicle id="car6" depart="984.00">
        <route edges="MalSt_2_1 BynPl_1_1"/>
    </vehicle>
    <vehicle id="car7" depart="1641.00">
        <route edges="MalSt_2_1 BynPl_1_1"/>
    </vehicle>
    <vehicle id="car8" depart="1684.00">
        <route edges="TorPl_1_4 BynPl_1_1"/>
    </vehicle>
    <vehicle id="car9" depart="1826.00">
        <route edges="MalSt_2_1 BynPl_1_1"/>
    </vehicle>
    <vehicle id="car10" depart="1917.00">
        <route edges="MalSt_2_1 BynPl_1_1"/>
    </vehicle>
    <vehicle id="car11" depart="2002.00">
        <route edges="TorPl_1_4 BynPl_1_1"/>
    </vehicle>
    <vehicle id="car12" depart="2436.00">
        <route edges="TorPl_1_4 BynPl_1_1"/>
    </vehicle>
    <vehicle id="car13" depart="2511.00">
        <route edges="MalSt_2_1 BynPl_1_1"/>
    </vehicle>
    <vehicle id="car14" depart="2597.00">
        <route edges="MalSt_2_1 BynPl_1_1"/>
    </vehicle>
    <vehicle id="car15" depart="2688.00">
        <route edges="TorPl_1_4 BynPl_1_1"/>
    </vehicle>
    <vehicle id="car16" depart="2889.00">
        <route edges="MalSt_2_1 BynPl_1_1"/>
    </vehicle>
    <vehicle id="car17" depart="3168.00">
        <route edges="TorPl_1_4 BynPl_1_1"/>
    </vehicle>
    <vehicle id="car18" depart="3422.00">
        <route edges="MalSt_2_1 BynPl_1_1"/>
    </vehicle>
    <vehicle id="car19" depart="3459.00">
        <route edges="TorPl_1_4 BynPl_1_1"/>
    </vehicle>
    <vehicle id="car20" depart="3573.00">
        <route edges="TorPl_1_4 BynPl_1_1"/>
    </vehicle>
</routes>
