<?xml version="1.0" encoding="UTF-8"?>

<!-- generated on 2026-02-02 18:59:09.907690 by Eclipse SUMO randomTrips.py UNKNOWN
<configuration>
    <net-file value="../networks/crossing/main.net.xml"/>
    <output-trip-file value="../routes/crossing/eval/50/pedestrian.trips.xml"/>
    <route-file value="../routes/crossing/eval/50/pedestrian.rou.xml"/>
    <pedestrians value="True"/>
    <prefix value="pedestrian"/>
    <seed value="50"/>
    <insertion-density value="300.0"/>
    <binomial value="100"/>
</configuration>
-->

<!-- generated on 2026-02-02T18:59:09.903890+00:00 by Eclipse SUMO duarouter 1.25.0
<duarouterConfiguration xmlns:xsi="http://www.w3.org/2001/XMLSchema-instance" xsi:noNamespaceSchemaLocation="http://sumo.dlr.de/xsd/duarouterConfiguration.xsd">

    <input>
        <net-file value="../networks/crossing/main.net.xml"/>
        <route-files value="../routes/crossing/eval/50/pedestrian.trips.xml"/>
    </input>

    <output>
        <output-file value="../routes/crossing/eval/50/pedestrian.rou.xml"/>
        <alternatives-output value="NUL"/>
    </output>

    <time>
        <begin value="0"/>
        <end value="3600.0"/>
    </time>

    <report>
        <no-warnings value="true"/>
        <ignore-errors value="true"/>
        <no-step-log value="true"/>
    </report>

</duarouterConfiguration>
-->

<routes xmlns:xsi="http://www.w3.org/2001/XMLSchema-instance" xsi:noNamespaceSchemaLocation="http://sumo.dlr.de/xsd/routes_file.xsd">
    <person id="pedestrian0" depart="38.00">
        <walk edges="TorPl_2_1 TorPl_1_1"/>
    </person>
    <person id="pedestrian1" depart="42.00">
        <walk edges="MalSt_2_1"/>
    </person>
    <person id="pedestrian2" depart="150.00">
        <walk edges="BynPl_1_1 MalPl_2_1"/>
    </person>
    <person id="pedestrian3" depart="162.00">
        <walk edges="TorPl_1_1 MalPl_2_1"/>
    </person>
    <person id="pedestrian4" depart="181.00">
        <walk edges="TorPl_1_1 MalSt_1_1"/>
    </person>
    <person id="pedestrian5" depart="211.00">
        <walk edges="MalSt_1_1 BynPl_1_1"/>
    </person>
    <person id="pedestrian6" depart="235.00">
        <walk edges="MalPl_2_1 TorPl_1_1"/>
    </person>
    <person id="pedestrian7" depart="239.00">
        <walk edges="TorPl_2_1 BynPl_2_1"/>
    </person>
    <person id="pedestrian8" depart="262.00">
        <walk edges="MalSt_1_1 TorPl_2_1"/>
    </person>
    <person id="pedestrian9" depart="263.00">
        <walk edges="MalSt_2_1 BynPl_2_1"/>
    </person>
    <person id="pedestrian10" depart="276.00">
        <walk edges="BynPl_2_1 MalSt_2_1"/>
    </person>
    <person id="pedestrian11" depart="281.00">
        <walk edges="MalSt_1_1 MalPl_1_1"/>
    </person>
    <person id="pedestrian12" depart="299.00">
        <walk edges="MalSt_2_1 TorPl_2_1"/>
    </person>
    <person id="pedestrian13" depart="362.00">
        <walk edges="MalSt_1_1 TorPl_1_1"/>
    </person>
    <person id="pedestrian14" depart="368.00">
        <walk edges="MalPl_1_1"/>
    </person>
    <person id="pedestrian15" depart="442.00">
        <walk edges="MalPl_1_1"/>
    </person>
    <person id="pedestrian16" depart="454.00">
        <walk edges="MalSt_2_1 BynPl_2_1"/>
    </person>
    <person id="pedestrian17" depart="469.00">
        <walk edges="TorPl_2_1 MalSt_2_1"/>
    </person>
    <person id="pedestrian18" depart="517.00">
        <walk edges="MalPl_2_1"/>
    </person>
    <person id="pedestrian19" depart="537.00">
        <walk edges="MalPl_1_1 MalSt_1_1"/>
    </person>
    <person id="pedestrian20" depart="549.00">
        <walk edges="MalSt_1_1 BynPl_2_1"/>
    </person>
    <person id="pedestrian21" depart="558.00">
        <walk edges="MalPl_1_1 MalSt_1_1"/>
    </person>
    <person id="pedestrian22" depart="605.00">
        <walk edges="BynPl_2_1 MalSt_1_1"/>
    </person>
    <person id="pedestrian23" depart="623.00">
        <walk edges="TorPl_1_1 MalSt_1_1"/>
    </person>
    <person id="pedestrian24" depart="646.00">
        <walk edges="MalSt_1_1 MalSt_2_1"/>
    </person>
    <person id="pedestrian25" depart="672.00">
        <walk edges="MalPl_2_1"/>
    </person>
    <person id="pedestrian26" depart="691.00">
        <walk edges="TorPl_2_1 BynPl_2_1"/>
    </person>
    <person id="pedestrian27" depart="691.00">
        <walk edges="MalPl_2_1 MalSt_1_1"/>
    </person>
    <person id="pedestrian28" depart="700.00">
        <walk edges="MalSt_2_1 TorPl_1_1"/>
    </person>
    <person id="pedestrian29" depart="723.00">
        <walk edges="TorPl_1_1 MalPl_2_1"/>
    </person>
    <person id="pedestrian30" depart="725.00">
        <walk edges="TorPl_2_1"/>
    </person>
    <person id="pedestrian31" depart="740.00">
        <walk edges="TorPl_2_1 BynPl_2_1"/>
    </person>
    <person id="pedestrian32" depart="757.00">
        <walk edges="TorPl_2_1 MalSt_1_1"/>
    </person>
    <person id="pedestrian33" depart="772.00">
        <walk edges="BynPl_1_1"/>
    </person>
    <person id="pedestrian34" depart="773.00">
        <walk edges="BynPl_1_1"/>
    </person>
    <person id="pedestrian35" depart="788.00">
        <walk edges="TorPl_1_1 MalPl_1_1"/>
    </person>
    <person id="pedestrian36" depart="798.00">
        <walk edges="BynPl_1_1 MalSt_2_1"/>
    </person>
    <person id="pedestrian37" depart="812.00">
        <walk edges="MalSt_2_1 MalPl_2_1"/>
    </person>
    <person id="pedestrian38" depart="828.00">
        <walk edges="MalSt_1_1 BynPl_2_1"/>
    </person>
    <person id="pedestrian39" depart="830.00">
        <walk edges="TorPl_2_1 MalPl_1_1"/>
    </person>
    <person id="pedestrian40" depart="859.00">
        <walk edges="MalPl_1_1 MalPl_2_1"/>
    </person>
    <person id="pedestrian41" depart="862.00">
        <walk edges="MalPl_1_1 BynPl_1_1"/>
    </person>
    <person id="pedestrian42" depart="865.00">
        <walk edges="MalPl_1_1 TorPl_2_1"/>
    </person>
    <person id="pedestrian43" depart="871.00">
        <walk edges="MalPl_2_1 BynPl_1_1"/>
    </person>
    <person id="pedestrian44" depart="882.00">
        <walk edges="BynPl_1_1 MalSt_1_1"/>
    </person>
    <person id="pedestrian45" depart="901.00">
        <walk edges="BynPl_1_1 TorPl_2_1"/>
    </person>
    <person id="pedestrian46" depart="941.00">
        <walk edges="TorPl_2_1"/>
    </person>
    <person id="pedestrian47" depart="979.00">
        <walk edges="BynPl_2_1 MalPl_1_1"/>
    </person>
    <person id="pedestrian48" depart="1004.00">
        <walk edges="MalSt_1_1 MalSt_2_1"/>
    </person>
    <person id="pedestrian49" depart="1084.00">
        <walk edges="MalPl_2_1 BynPl_1_1"/>
    </person>
    <person id="pedestrian50" depart="1135.00">
        <walk edges="BynPl_1_1 TorPl_1_1"/>
    </person>
    <person id="pedestrian51" depart="1149.00">
        <walk edges="MalPl_2_1 MalSt_1_1"/>
    </person>
    <person id="pedestrian52" depart="1163.00">
        <walk edges="BynPl_2_1 BynPl_1_1"/>
    </person>
    <person id="pedestrian53" depart="1175.00">
        <walk edges="TorPl_2_1 MalPl_1_1"/>
    </person>
    <person id="pedestrian54" depart="1187.00">
        <walk edges="TorPl_1_1"/>
    </person>
    <person id="pedestrian55" depart="1196.00">
        <walk edges="BynPl_2_1 MalSt_2_1"/>
    </person>
    <person id="pedestrian56" depart="1200.00">
        <walk edges="MalPl_1_1 MalSt_2_1"/>
    </person>
    <person id="pedestrian57" depart="1239.00">
        <walk edges="TorPl_1_1 MalSt_2_1"/>
    </person>
    <person id="pedestrian58" depart="1244.00">
        <walk edges="TorPl_1_1 TorPl_2_1"/>
    </person>
    <person id="pedestrian59" depart="1280.00">
        <walk edges="MalSt_2_1 TorPl_2_1"/>
    </person>
    <person id="pedestrian60" depart="1305.00">
        <walk edges="TorPl_2_1 BynPl_1_1"/>
    </person>
    <person id="pedestrian61" depart="1321.00">
        <walk edges="BynPl_2_1 TorPl_1_1"/>
    </person>
    <person id="pedestrian62" depart="1406.00">
        <walk edges="MalSt_2_1"/>
    </person>
    <person id="pedestrian63" depart="1408.00">
        <walk edges="TorPl_2_1 TorPl_1_1"/>
    </person>
    <person id="pedestrian64" depart="1439.00">
        <walk edges="BynPl_2_1 MalSt_2_1"/>
    </person>
    <person id="pedestrian65" depart="1465.00">
        <walk edges="BynPl_1_1 TorPl_1_1"/>
    </person>
    <person id="pedestrian66" depart="1478.00">
        <walk edges="MalSt_2_1 MalPl_1_1"/>
    </person>
    <person id="pedestrian67" depart="1535.00">
        <walk edges="MalSt_2_1 MalPl_1_1"/>
    </person>
    <person id="pedestrian68" depart="1553.00">
        <walk edges="MalPl_2_1 BynPl_1_1"/>
    </person>
    <person id="pedestrian69" depart="1697.00">
        <walk edges="BynPl_1_1"/>
    </person>
    <person id="pedestrian70" depart="1703.00">
        <walk edges="TorPl_1_1 MalSt_2_1"/>
    </person>
    <person id="pedestrian71" depart="1712.00">
        <walk edges="BynPl_1_1 BynPl_2_1"/>
    </person>
    <person id="pedestrian72" depart="1719.00">
        <walk edges="MalPl_1_1 TorPl_1_1"/>
    </person>
    <person id="pedestrian73" depart="1732.00">
        <walk edges="MalPl_2_1 MalPl_1_1"/>
    </person>
    <person id="pedestrian74" depart="1742.00">
        <walk edges="TorPl_1_1 MalPl_2_1"/>
    </person>
    <person id="pedestrian75" depart="1756.00">
        <walk edges="TorPl_1_1 MalPl_2_1"/>
    </person>
    <person id="pedestrian76" depart="1765.00">
        <walk edges="BynPl_1_1 MalSt_2_1"/>
    </person>
    <person id="pedestrian77" depart="1769.00">
        <walk edges="TorPl_1_1 BynPl_2_1"/>
    </person>
    <person id="pedestrian78" depart="1774.00">
        <walk edges="MalPl_2_1 TorPl_1_1"/>
    </person>
    <person id="pedestrian79" depart="1855.00">
        <walk edges="BynPl_2_1 MalSt_1_1"/>
    </person>
    <person id="pedestrian80" depart="1860.00">
        <walk edges="MalPl_1_1"/>
    </person>
    <person id="pedestrian81" depart="1873.00">
        <walk edges="MalSt_1_1 BynPl_1_1"/>
    </person>
    <person id="pedestrian82" depart="1875.00">
        <walk edges="MalPl_1_1 MalSt_2_1"/>
    </person>
    <person id="pedestrian83" depart="1893.00">
        <walk edges="MalPl_2_1 TorPl_1_1"/>
    </person>
    <person id="pedestrian84" depart="1931.00">
        <walk edges="TorPl_2_1 MalSt_2_1"/>
    </person>
    <person id="pedestrian85" depart="1991.00">
        <walk edges="MalSt_1_1 MalPl_2_1"/>
    </person>
    <person id="pedestrian86" depart="1994.00">
        <walk edges="BynPl_2_1 MalSt_2_1"/>
    </person>
    <person id="pedestrian87" depart="2021.00">
        <walk edges="TorPl_1_1 TorPl_2_1"/>
    </person>
    <person id="pedestrian88" depart="2022.00">
        <walk edges="MalSt_2_1 BynPl_1_1"/>
    </person>
    <person id="pedestrian89" depart="2040.00">
        <walk edges="MalPl_1_1"/>
    </person>
    <person id="pedestrian90" depart="2051.00">
        <walk edges="MalPl_2_1 TorPl_1_1"/>
    </person>
    <person id="pedestrian91" depart="2061.00">
        <walk edges="MalSt_1_1"/>
    </person>
    <person id="pedestrian92" depart="2069.00">
        <walk edges="MalPl_1_1"/>
    </person>
    <person id="pedestrian93" depart="2094.00">
        <walk edges="BynPl_1_1 TorPl_1_1"/>
    </person>
    <person id="pedestrian94" depart="2103.00">
        <walk edges="MalPl_2_1"/>
    </person>
    <person id="pedestrian95" depart="2107.00">
        <walk edges="TorPl_2_1 MalPl_1_1"/>
    </person>
    <person id="pedestrian96" depart="2128.00">
        <walk edges="TorPl_2_1 BynPl_1_1"/>
    </person>
    <person id="pedestrian97" depart="2139.00">
        <walk edges="MalPl_2_1 MalSt_2_1"/>
    </person>
    <person id="pedestrian98" depart="2167.00">
        <walk edges="BynPl_1_1 MalSt_1_1"/>
    </person>
    <person id="pedestrian99" depart="2222.00">
        <walk edges="BynPl_1_1"/>
    </person>
    <person id="pedestrian100" depart="2236.00">
        <walk edges="MalSt_1_1 MalSt_2_1"/>
    </person>
    <person id="pedestrian101" depart="2294.00">
        <walk edges="MalPl_1_1 MalPl_2_1"/>
    </person>
    <person id="pedestrian102" depart="2294.00">
        <walk edges="BynPl_1_1 TorPl_2_1"/>
    </person>
    <person id="pedestrian103" depart="2300.00">
        <walk edges="BynPl_2_1 TorPl_1_1"/>
    </person>
    <person id="pedestrian104" depart="2333.00">
        <walk edges="BynPl_1_1 MalSt_2_1"/>
    </person>
    <person id="pedestrian105" depart="2335.00">
        <walk edges="TorPl_1_1 TorPl_2_1"/>
    </person>
    <person id="pedestrian106" depart="2356.00">
        <walk edges="MalSt_1_1 MalSt_2_1"/>
    </person>
    <person id="pedestrian107" depart="2375.00">
        <walk edges="TorPl_1_1 BynPl_2_1"/>
    </person>
    <person id="pedestrian108" depart="2412.00">
        <walk edges="MalPl_1_1 TorPl_2_1"/>
    </person>
    <person id="pedestrian109" depart="2457.00">
        <walk edges="MalPl_1_1"/>
    </person>
    <person id="pedestrian110" depart="2461.00">
        <walk edges="MalSt_2_1 MalSt_1_1"/>
    </person>
    <person id="pedestrian111" depart="2476.00">
        <walk edges="TorPl_2_1 MalPl_2_1"/>
    </person>
    <person id="pedestrian112" depart="2480.00">
        <walk edges="BynPl_2_1 BynPl_1_1"/>
    </person>
    <person id="pedestrian113" depart="2511.00">
        <walk edges="MalPl_1_1 MalSt_1_1"/>
    </person>
    <person id="pedestrian114" depart="2523.00">
        <walk edges="TorPl_2_1 BynPl_1_1"/>
    </person>
    <person id="pedestrian115" depart="2564.00">
        <walk edges="MalSt_1_1"/>
    </person>
    <person id="pedestrian116" depart="2592.00">
        <walk edges="TorPl_1_1 MalPl_1_1"/>
    </person>
    <person id="pedestrian117" depart="2598.00">
        <walk edges="MalSt_2_1 MalSt_1_1"/>
    </person>
    <person id="pedestrian118" depart="2602.00">
        <walk edges="BynPl_2_1 TorPl_2_1"/>
    </person>
    <person id="pedestrian119" depart="2614.00">
        <walk edges="TorPl_2_1"/>
    </person>
    <person id="pedestrian120" depart="2617.00">
        <walk edges="BynPl_2_1 MalSt_1_1"/>
    </person>
    <person id="pedestrian121" depart="2625.00">
        <walk edges="MalPl_1_1 MalSt_1_1"/>
    </person>
    <person id="pedestrian122" depart="2647.00">
        <walk edges="MalPl_1_1 TorPl_2_1"/>
    </person>
    <person id="pedestrian123" depart="2694.00">
        <walk edges="MalSt_2_1 BynPl_1_1"/>
    </person>
    <person id="pedestrian124" depart="2701.00">
        <walk edges="MalSt_2_1"/>
    </person>
    <person id="pedestrian125" depart="2713.00">
        <walk edges="TorPl_1_1 BynPl_2_1"/>
    </person>
    <person id="pedestrian126" depart="2746.00">
        <walk edges="MalSt_2_1 TorPl_1_1"/>
    </person>
    <person id="pedestrian127" depart="2781.00">
        <walk edges="MalPl_1_1 MalPl_2_1"/>
    </person>
    <person id="pedestrian128" depart="2797.00">
        <walk edges="TorPl_2_1"/>
    </person>
    <person id="pedestrian129" depart="2813.00">
        <walk edges="MalSt_2_1 MalSt_1_1"/>
    </person>
    <person id="pedestrian130" depart="2853.00">
        <walk edges="MalSt_2_1 BynPl_1_1"/>
    </person>
    <person id="pedestrian131" depart="2902.00">
        <walk edges="MalPl_1_1"/>
    </person>
    <person id="pedestrian132" depart="2904.00">
        <walk edges="MalSt_2_1"/>
    </person>
    <person id="pedestrian133" depart="2925.00">
        <walk edges="MalPl_2_1"/>
    </person>
    <person id="pedestrian134" depart="2926.00">
        <walk edges="BynPl_2_1 MalPl_1_1"/>
    </person>
    <person id="pedestrian135" depart="2926.00">
        <walk edges="BynPl_2_1 TorPl_2_1"/>
    </person>
    <person id="pedestrian136" depart="2943.00">
        <walk edges="MalPl_1_1 MalSt_1_1"/>
    </person>
    <person id="pedestrian137" depart="2962.00">
        <walk edges="MalSt_2_1 BynPl_2_1"/>
    </person>
    <person id="pedestrian138" depart="2974.00">
        <walk edges="MalSt_1_1 BynPl_1_1"/>
    </person>
    <person id="pedestrian139" depart="2987.00">
        <walk edges="MalPl_2_1 BynPl_2_1"/>
    </person>
    <person id="pedestrian140" depart="3005.00">
        <walk edges="MalPl_2_1 TorPl_2_1"/>
    </person>
    <person id="pedestrian141" depart="3019.00">
        <walk edges="TorPl_2_1 MalSt_2_1"/>
    </person>
    <person id="pedestrian142" depart="3023.00">
        <walk edges="BynPl_2_1 MalSt_2_1"/>
    </person>
    <person id="pedestrian143" depart="3034.00">
        <walk edges="MalSt_1_1 BynPl_2_1"/>
    </person>
    <person id="pedestrian144" depart="3046.00">
        <walk edges="MalSt_1_1 MalSt_2_1"/>
    </person>
    <person id="pedestrian145" depart="3049.00">
        <walk edges="TorPl_2_1 TorPl_1_1"/>
    </person>
    <person id="pedestrian146" depart="3069.00">
        <walk edges="BynPl_1_1 TorPl_2_1"/>
    </person>
    <person id="pedestrian147" depart="3073.00">
        <walk edges="MalSt_1_1 BynPl_2_1"/>
    </person>
    <person id="pedestrian148" depart="3074.00">
        <walk edges="MalPl_1_1 MalPl_2_1"/>
    </person>
    <person id="pedestrian149" depart="3080.00">
        <walk edges="BynPl_1_1 MalPl_1_1"/>
    </person>
    <person id="pedestrian150" depart="3087.00">
        <walk edges="MalSt_2_1 MalPl_2_1"/>
    </person>
    <person id="pedestrian151" depart="3087.00">
        <walk edges="TorPl_1_1 TorPl_2_1"/>
    </person>
    <person id="pedestrian152" depart="3120.00">
        <walk edges="TorPl_2_1 BynPl_2_1"/>
    </person>
    <person id="pedestrian153" depart="3174.00">
        <walk edges="TorPl_1_1 BynPl_2_1"/>
    </person>
    <person id="pedestrian154" depart="3180.00">
        <walk edges="TorPl_1_1 BynPl_1_1"/>
    </person>
    <person id="pedestrian155" depart="3185.00">
        <walk edges="BynPl_2_1 BynPl_1_1"/>
    </person>
    <person id="pedestrian156" depart="3205.00">
        <walk edges="BynPl_1_1 MalPl_2_1"/>
    </person>
    <person id="pedestrian157" depart="3210.00">
        <walk edges="TorPl_1_1 TorPl_2_1"/>
    </person>
    <person id="pedestrian158" depart="3266.00">
        <walk edges="MalPl_2_1 MalPl_1_1"/>
    </person>
    <person id="pedestrian159" depart="3268.00">
        <walk edges="MalPl_2_1 BynPl_2_1"/>
    </person>
    <person id="pedestrian160" depart="3302.00">
        <walk edges="TorPl_1_1 MalPl_2_1"/>
    </person>
    <person id="pedestrian161" depart="3313.00">
        <walk edges="TorPl_2_1 BynPl_2_1"/>
    </person>
    <person id="pedestrian162" depart="3341.00">
        <walk edges="TorPl_1_1 MalPl_2_1"/>
    </person>
    <person id="pedestrian163" depart="3369.00">
        <walk edges="TorPl_1_1 BynPl_2_1"/>
    </person>
    <person id="pedestrian164" depart="3371.00">
        <walk edges="BynPl_2_1 MalPl_1_1"/>
    </person>
    <person id="pedestrian165" depart="3375.00">
        <walk edges="MalPl_1_1 MalPl_2_1"/>
    </person>
    <person id="pedestrian166" depart="3382.00">
        <walk edges="TorPl_1_1 BynPl_2_1"/>
    </person>
    <person id="pedestrian167" depart="3436.00">
        <walk edges="TorPl_1_1 TorPl_2_1"/>
    </person>
    <person id="pedestrian168" depart="3508.00">
        <walk edges="TorPl_1_1 MalPl_2_1"/>
    </person>
    <person id="pedestrian169" depart="3544.00">
        <walk edges="TorPl_2_1 BynPl_1_1"/>
    </person>
</routes>
