<?xml version="1.0" encoding="UTF-8"?>

<!-- generated on 2026-04-01 12:55:22.830774 by Eclipse SUMO randomTrips.py UNKNOWN
<configuration>
    <net-file value="../networks/crossing/main.net.xml"/>
    <output-trip-file value="../routes/crossing/eval/100/pedestrian.trips.xml"/>
    <route-file value="../routes/crossing/eval/100/pedestrian.rou.xml"/>
    <pedestrians value="True"/>
    <prefix value="pedestrian"/>
    <seed value="100"/>
    <insertion-density value="300.0"/>
    <binomial value="100"/>
</configuration>
-->

<!-- generated on 2026-04-01T12:55:22.827130+00:00 by Eclipse SUMO duarouter 1.25.0
<duarouterConfiguration xmlns:xsi="http://www.w3.org/2001/XMLSchema-instance" xsi:noNamespaceSchemaLocation="http://sumo.dlr.de/xsd/duarouterConfiguration.xsd">

    <input>
        <net-file value="../networks/crossing/main.net.xml"/>
        <route-files value="../routes/crossing/eval/100/pedestrian.trips.xml"/>
    </input>

    <output>
        <output-file value="../routes/crossing/eval/100/pedestrian.rou.xml"/>
        <alternatives-output value="NUL"/>
    </output>

    <time>
        <begin value="0"/>
        <end value="3600.0"/>
    </time>

    <report>
        <no-warnings value="true"/>
        <ignore-errors value="true"/>
        <no-step-log value="true"/>
    </report>

</duarouterConfiguration>
-->

<routes xmlns:xsi="http://www.w3.org/2001/XMLSchema-instance" xsi:noNamespaceSchemaLocation="http://sumo.dlr.de/xsd/routes_file.xsd">
    <person id="pedestrian0" depart="5.00">
        <walk edges="TorPl_1_1 BynPl_2_1"/>
    </person>
    <person id="pedestrian1" depart="15.00">
        <walk edges="BynPl_1_1 TorPl_2_1"/>
    </person>
    <person id="pedestrian2" depart="40.00">
        <walk edges="MalSt_2_1 MalPl_2_1"/>
    </person>
    <person id="pedestrian3" depart="96.00">
        <walk edges="MalSt_1_1"/>
    </person>
    <person id="pedestrian4" depart="103.00">
        <walk edges="TorPl_1_1 BynPl_2_1"/>
    </person>
    <person id="pedestrian5" depart="120.00">
        <walk edges="TorPl_2_1 MalPl_1_1"/>
    </person>
    <person id="pedestrian6" depart="135.00">
        <walk edges="TorPl_1_1"/>
    </person>
    <person id="pedestrian7" depart="136.00">
        <walk edges="MalSt_1_1"/>
    </person>
    <person id="pedestrian8" depart="175.00">
        <walk edges="MalPl_2_1"/>
    </person>
    <person id="pedestrian9" depart="249.00">
        <walk edges="MalPl_2_1 MalPl_1_1"/>
    </person>
    <person id="pedestrian10" depart="275.00">
        <walk edges="TorPl_2_1"/>
    </person>
    <person id="pedestrian11" depart="313.00">
        <walk edges="TorPl_1_1 MalSt_2_1"/>
    </person>
    <person id="pedestrian12" depart="327.00">
        <walk edges="MalPl_2_1 BynPl_2_1"/>
    </person>
    <person id="pedestrian13" depart="332.00">
        <walk edges="TorPl_1_1"/>
    </person>
    <person id="pedestrian14" depart="351.00">
        <walk edges="MalSt_1_1 TorPl_2_1"/>
    </person>
    <person id="pedestrian15" depart="352.00">
        <walk edges="MalSt_2_1 TorPl_2_1"/>
    </person>
    <person id="pedestrian16" depart="362.00">
        <walk edges="BynPl_2_1"/>
    </person>
    <person id="pedestrian17" depart="373.00">
        <walk edges="MalPl_1_1 MalSt_1_1"/>
    </person>
    <person id="pedestrian18" depart="376.00">
        <walk edges="BynPl_1_1"/>
    </person>
    <person id="pedestrian19" depart="416.00">
        <walk edges="BynPl_2_1"/>
    </person>
    <person id="pedestrian20" depart="422.00">
        <walk edges="BynPl_1_1"/>
    </person>
    <person id="pedestrian21" depart="434.00">
        <walk edges="MalPl_2_1 TorPl_1_1"/>
    </person>
    <person id="pedestrian22" depart="471.00">
        <walk edges="MalPl_2_1 TorPl_2_1"/>
    </person>
    <person id="pedestrian23" depart="479.00">
        <walk edges="MalPl_1_1 MalPl_2_1"/>
    </person>
    <person id="pedestrian24" depart="541.00">
        <walk edges="MalPl_2_1 BynPl_1_1"/>
    </person>
    <person id="pedestrian25" depart="562.00">
        <walk edges="MalSt_2_1 BynPl_1_1"/>
    </person>
    <person id="pedestrian26" depart="573.00">
        <walk edges="BynPl_2_1 MalPl_1_1"/>
    </person>
    <person id="pedestrian27" depart="581.00">
        <walk edges="MalSt_1_1 BynPl_1_1"/>
    </person>
    <person id="pedestrian28" depart="588.00">
        <walk edges="MalSt_1_1 MalPl_2_1"/>
    </person>
    <person id="pedestrian29" depart="591.00">
        <walk edges="BynPl_1_1 TorPl_2_1"/>
    </person>
    <person id="pedestrian30" depart="596.00">
        <walk edges="MalPl_2_1 BynPl_1_1"/>
    </person>
    <person id="pedestrian31" depart="626.00">
        <walk edges="BynPl_2_1 MalPl_1_1"/>
    </person>
    <person id="pedestrian32" depart="627.00">
        <walk edges="TorPl_1_1 TorPl_2_1"/>
    </person>
    <person id="pedestrian33" depart="657.00">
        <walk edges="MalSt_1_1 TorPl_1_1"/>
    </person>
    <person id="pedestrian34" depart="664.00">
        <walk edges="TorPl_1_1 TorPl_2_1"/>
    </person>
    <person id="pedestrian35" depart="685.00">
        <walk edges="MalPl_1_1 TorPl_2_1"/>
    </person>
    <person id="pedestrian36" depart="689.00">
        <walk edges="BynPl_2_1 MalPl_1_1"/>
    </person>
    <person id="pedestrian37" depart="691.00">
        <walk edges="MalPl_2_1 TorPl_1_1"/>
    </person>
    <person id="pedestrian38" depart="755.00">
        <walk edges="BynPl_2_1 BynPl_1_1"/>
    </person>
    <person id="pedestrian39" depart="757.00">
        <walk edges="MalSt_1_1"/>
    </person>
    <person id="pedestrian40" depart="942.00">
        <walk edges="TorPl_1_1 BynPl_1_1"/>
    </person>
    <person id="pedestrian41" depart="950.00">
        <walk edges="MalPl_1_1 MalSt_1_1"/>
    </person>
    <person id="pedestrian42" depart="966.00">
        <walk edges="MalSt_1_1 MalPl_2_1"/>
    </person>
    <person id="pedestrian43" depart="983.00">
        <walk edges="BynPl_1_1 MalPl_2_1"/>
    </person>
    <person id="pedestrian44" depart="1001.00">
        <walk edges="TorPl_2_1"/>
    </person>
    <person id="pedestrian45" depart="1002.00">
        <walk edges="MalPl_1_1 MalSt_2_1"/>
    </person>
    <person id="pedestrian46" depart="1013.00">
        <walk edges="BynPl_2_1 BynPl_1_1"/>
    </person>
    <person id="pedestrian47" depart="1037.00">
        <walk edges="TorPl_2_1 TorPl_1_1"/>
    </person>
    <person id="pedestrian48" depart="1056.00">
        <walk edges="BynPl_1_1 MalSt_1_1"/>
    </person>
    <person id="pedestrian49" depart="1093.00">
        <walk edges="TorPl_1_1 MalSt_2_1"/>
    </person>
    <person id="pedestrian50" depart="1121.00">
        <walk edges="BynPl_2_1 MalPl_1_1"/>
    </person>
    <person id="pedestrian51" depart="1142.00">
        <walk edges="BynPl_2_1 BynPl_1_1"/>
    </person>
    <person id="pedestrian52" depart="1145.00">
        <walk edges="MalPl_2_1 TorPl_1_1"/>
    </person>
    <person id="pedestrian53" depart="1179.00">
        <walk edges="BynPl_1_1 MalSt_1_1"/>
    </person>
    <person id="pedestrian54" depart="1189.00">
        <walk edges="MalPl_2_1"/>
    </person>
    <person id="pedestrian55" depart="1230.00">
        <walk edges="MalSt_2_1 MalSt_1_1"/>
    </person>
    <person id="pedestrian56" depart="1256.00">
        <walk edges="TorPl_2_1 BynPl_1_1"/>
    </person>
    <person id="pedestrian57" depart="1261.00">
        <walk edges="MalSt_2_1 MalPl_1_1"/>
    </person>
    <person id="pedestrian58" depart="1280.00">
        <walk edges="MalSt_2_1"/>
    </person>
    <person id="pedestrian59" depart="1372.00">
        <walk edges="TorPl_1_1 BynPl_2_1"/>
    </person>
    <person id="pedestrian60" depart="1419.00">
        <walk edges="MalSt_1_1"/>
    </person>
    <person id="pedestrian61" depart="1421.00">
        <walk edges="TorPl_2_1 MalPl_1_1"/>
    </person>
    <person id="pedestrian62" depart="1425.00">
        <walk edges="MalPl_1_1 BynPl_1_1"/>
    </person>
    <person id="pedestrian63" depart="1428.00">
        <walk edges="MalPl_2_1 MalSt_1_1"/>
    </person>
    <person id="pedestrian64" depart="1461.00">
        <walk edges="BynPl_1_1 MalSt_2_1"/>
    </person>
    <person id="pedestrian65" depart="1465.00">
        <walk edges="MalSt_1_1 MalPl_2_1"/>
    </person>
    <person id="pedestrian66" depart="1470.00">
        <walk edges="MalSt_2_1 TorPl_1_1"/>
    </person>
    <person id="pedestrian67" depart="1481.00">
        <walk edges="MalPl_1_1 MalSt_2_1"/>
    </person>
    <person id="pedestrian68" depart="1532.00">
        <walk edges="BynPl_1_1 MalSt_1_1"/>
    </person>
    <person id="pedestrian69" depart="1542.00">
        <walk edges="BynPl_2_1 MalSt_2_1"/>
    </person>
    <person id="pedestrian70" depart="1551.00">
        <walk edges="TorPl_2_1 MalSt_1_1"/>
    </person>
    <person id="pedestrian71" depart="1569.00">
        <walk edges="BynPl_2_1 TorPl_1_1"/>
    </person>
    <person id="pedestrian72" depart="1576.00">
        <walk edges="MalSt_2_1 MalPl_2_1"/>
    </person>
    <person id="pedestrian73" depart="1595.00">
        <walk edges="MalSt_2_1"/>
    </person>
    <person id="pedestrian74" depart="1679.00">
        <walk edges="MalPl_1_1"/>
    </person>
    <person id="pedestrian75" depart="1708.00">
        <walk edges="MalPl_1_1"/>
    </person>
    <person id="pedestrian76" depart="1714.00">
        <walk edges="MalSt_1_1 BynPl_2_1"/>
    </person>
    <person id="pedestrian77" depart="1774.00">
        <walk edges="MalPl_1_1 TorPl_2_1"/>
    </person>
    <person id="pedestrian78" depart="1793.00">
        <walk edges="BynPl_1_1 BynPl_2_1"/>
    </person>
    <person id="pedestrian79" depart="1845.00">
        <walk edges="MalSt_2_1"/>
    </person>
    <person id="pedestrian80" depart="1860.00">
        <walk edges="MalPl_2_1 BynPl_1_1"/>
    </person>
    <person id="pedestrian81" depart="1867.00">
        <walk edges="MalPl_2_1"/>
    </person>
    <person id="pedestrian82" depart="1886.00">
        <walk edges="MalPl_2_1 TorPl_1_1"/>
    </person>
    <person id="pedestrian83" depart="1892.00">
        <walk edges="MalSt_1_1 BynPl_2_1"/>
    </person>
    <person id="pedestrian84" depart="1926.00">
        <walk edges="TorPl_1_1 MalPl_1_1"/>
    </person>
    <person id="pedestrian85" depart="1965.00">
        <walk edges="BynPl_1_1 MalSt_1_1"/>
    </person>
    <person id="pedestrian86" depart="1973.00">
        <walk edges="MalSt_2_1 BynPl_2_1"/>
    </person>
    <person id="pedestrian87" depart="1997.00">
        <walk edges="MalPl_2_1 TorPl_1_1"/>
    </person>
    <person id="pedestrian88" depart="2022.00">
        <walk edges="MalPl_1_1"/>
    </person>
    <person id="pedestrian89" depart="2047.00">
        <walk edges="MalSt_2_1 TorPl_1_1"/>
    </person>
    <person id="pedestrian90" depart="2056.00">
        <walk edges="BynPl_1_1 TorPl_1_1"/>
    </person>
    <person id="pedestrian91" depart="2102.00">
        <walk edges="MalSt_1_1 BynPl_1_1"/>
    </person>
    <person id="pedestrian92" depart="2123.00">
        <walk edges="MalSt_1_1 TorPl_1_1"/>
    </person>
    <person id="pedestrian93" depart="2142.00">
        <walk edges="BynPl_1_1 TorPl_2_1"/>
    </person>
    <person id="pedestrian94" depart="2161.00">
        <walk edges="MalSt_2_1 TorPl_2_1"/>
    </person>
    <person id="pedestrian95" depart="2169.00">
        <walk edges="MalPl_2_1 TorPl_1_1"/>
    </person>
    <person id="pedestrian96" depart="2171.00">
        <walk edges="BynPl_2_1 TorPl_1_1"/>
    </person>
    <person id="pedestrian97" depart="2195.00">
        <walk edges="MalSt_1_1 MalSt_2_1"/>
    </person>
    <person id="pedestrian98" depart="2224.00">
        <walk edges="MalPl_2_1 MalSt_2_1"/>
    </person>
    <person id="pedestrian99" depart="2252.00">
        <walk edges="MalSt_2_1 MalSt_1_1"/>
    </person>
    <person id="pedestrian100" depart="2277.00">
        <walk edges="MalSt_2_1 BynPl_1_1"/>
    </person>
    <person id="pedestrian101" depart="2288.00">
        <walk edges="TorPl_1_1"/>
    </person>
    <person id="pedestrian102" depart="2290.00">
        <walk edges="BynPl_1_1 MalSt_1_1"/>
    </person>
    <person id="pedestrian103" depart="2300.00">
        <walk edges="TorPl_1_1 MalSt_2_1"/>
    </person>
    <person id="pedestrian104" depart="2347.00">
        <walk edges="MalPl_2_1 MalPl_1_1"/>
    </person>
    <person id="pedestrian105" depart="2387.00">
        <walk edges="TorPl_2_1 MalSt_1_1"/>
    </person>
    <person id="pedestrian106" depart="2393.00">
        <walk edges="MalPl_1_1 MalSt_1_1"/>
    </person>
    <person id="pedestrian107" depart="2399.00">
        <walk edges="BynPl_1_1 TorPl_1_1"/>
    </person>
    <person id="pedestrian108" depart="2400.00">
        <walk edges="TorPl_1_1 BynPl_2_1"/>
    </person>
    <person id="pedestrian109" depart="2406.00">
        <walk edges="TorPl_1_1"/>
    </person>
    <person id="pedestrian110" depart="2412.00">
        <walk edges="BynPl_1_1 TorPl_1_1"/>
    </person>
    <person id="pedestrian111" depart="2413.00">
        <walk edges="TorPl_2_1"/>
    </person>
    <person id="pedestrian112" depart="2419.00">
        <walk edges="MalSt_1_1 TorPl_2_1"/>
    </person>
    <person id="pedestrian113" depart="2426.00">
        <walk edges="MalPl_1_1 MalPl_2_1"/>
    </person>
    <person id="pedestrian114" depart="2459.00">
        <walk edges="MalSt_2_1 TorPl_2_1"/>
    </person>
    <person id="pedestrian115" depart="2462.00">
        <walk edges="BynPl_2_1"/>
    </person>
    <person id="pedestrian116" depart="2463.00">
        <walk edges="MalSt_1_1 TorPl_1_1"/>
    </person>
    <person id="pedestrian117" depart="2582.00">
        <walk edges="BynPl_2_1 MalPl_2_1"/>
    </person>
    <person id="pedestrian118" depart="2616.00">
        <walk edges="TorPl_1_1 BynPl_2_1"/>
    </person>
    <person id="pedestrian119" depart="2642.00">
        <walk edges="MalPl_1_1 MalPl_2_1"/>
    </person>
    <person id="pedestrian120" depart="2706.00">
        <walk edges="TorPl_1_1 MalPl_2_1"/>
    </person>
    <person id="pedestrian121" depart="2734.00">
        <walk edges="MalSt_2_1 MalSt_1_1"/>
    </person>
    <person id="pedestrian122" depart="2745.00">
        <walk edges="BynPl_1_1"/>
    </person>
    <person id="pedestrian123" depart="2753.00">
        <walk edges="MalSt_2_1 BynPl_1_1"/>
    </person>
    <person id="pedestrian124" depart="2838.00">
        <walk edges="BynPl_2_1 MalSt_2_1"/>
    </person>
    <person id="pedestrian125" depart="2847.00">
        <walk edges="TorPl_2_1 TorPl_1_1"/>
    </person>
    <person id="pedestrian126" depart="2849.00">
        <walk edges="TorPl_2_1 BynPl_1_1"/>
    </person>
    <person id="pedestrian127" depart="2866.00">
        <walk edges="BynPl_1_1 MalSt_1_1"/>
    </person>
    <person id="pedestrian128" depart="2877.00">
        <walk edges="TorPl_2_1 BynPl_2_1"/>
    </person>
    <person id="pedestrian129" depart="2909.00">
        <walk edges="BynPl_2_1 BynPl_1_1"/>
    </person>
    <person id="pedestrian130" depart="2915.00">
        <walk edges="MalSt_2_1 BynPl_2_1"/>
    </person>
    <person id="pedestrian131" depart="2953.00">
        <walk edges="BynPl_2_1 MalPl_1_1"/>
    </person>
    <person id="pedestrian132" depart="2984.00">
        <walk edges="MalSt_1_1 MalPl_1_1"/>
    </person>
    <person id="pedestrian133" depart="3030.00">
        <walk edges="MalSt_1_1 TorPl_2_1"/>
    </person>
    <person id="pedestrian134" depart="3067.00">
        <walk edges="TorPl_1_1 BynPl_2_1"/>
    </person>
    <person id="pedestrian135" depart="3150.00">
        <walk edges="MalSt_2_1 BynPl_2_1"/>
    </person>
    <person id="pedestrian136" depart="3180.00">
        <walk edges="MalSt_2_1"/>
    </person>
    <person id="pedestrian137" depart="3195.00">
        <walk edges="MalSt_2_1"/>
    </person>
    <person id="pedestrian138" depart="3231.00">
        <walk edges="BynPl_1_1 TorPl_2_1"/>
    </person>
    <person id="pedestrian139" depart="3235.00">
        <walk edges="MalPl_2_1 BynPl_2_1"/>
    </person>
    <person id="pedestrian140" depart="3270.00">
        <walk edges="MalPl_1_1 MalPl_2_1"/>
    </person>
    <person id="pedestrian141" depart="3298.00">
        <walk edges="MalPl_2_1 MalPl_1_1"/>
    </person>
    <person id="pedestrian142" depart="3336.00">
        <walk edges="MalPl_1_1 MalSt_1_1"/>
    </person>
    <person id="pedestrian143" depart="3393.00">
        <walk edges="MalPl_2_1 MalSt_2_1"/>
    </person>
    <person id="pedestrian144" depart="3400.00">
        <walk edges="TorPl_2_1 BynPl_1_1"/>
    </person>
    <person id="pedestrian145" depart="3466.00">
        <walk edges="MalPl_2_1 MalSt_2_1"/>
    </person>
    <person id="pedestrian146" depart="3473.00">
        <walk edges="TorPl_2_1 MalSt_2_1"/>
    </person>
    <person id="pedestrian147" depart="3487.00">
        <walk edges="BynPl_2_1 BynPl_1_1"/>
    </person>
    <person id="pedestrian148" depart="3490.00">
        <walk edges="TorPl_1_1 MalPl_2_1"/>
    </person>
    <person id="pedestrian149" depart="3501.00">
        <walk edges="BynPl_2_1"/>
    </person>
    <person id="pedestrian150" depart="3514.00">
        <walk edges="MalSt_2_1"/>
    </person>
    <person id="pedestrian151" depart="3535.00">
        <walk edges="MalSt_1_1"/>
    </person>
    <person id="pedestrian152" depart="3544.00">
        <walk edges="TorPl_1_1 MalSt_1_1"/>
    </person>
    <person id="pedestrian153" depart="3547.00">
        <walk edges="MalSt_2_1 MalPl_1_1"/>
    </person>
    <person id="pedestrian154" depart="3598.00">
        <walk edges="BynPl_2_1 BynPl_1_1"/>
    </person>
</routes>
