<?xml version="1.0" encoding="UTF-8"?>

<!-- generated on 2026-02-02 18:57:49.648828 by Eclipse SUMO randomTrips.py UNKNOWN
<configuration>
    <net-file value="../networks/crossing/main.net.xml"/>
    <output-trip-file value="../routes/crossing/train/10000/pedestrian.trips.xml"/>
    <route-file value="../routes/crossing/train/10000/pedestrian.rou.xml"/>
    <pedestrians value="True"/>
    <prefix value="pedestrian"/>
    <seed value="10000"/>
    <insertion-density value="200.0"/>
    <binomial value="100"/>
</configuration>
-->

<!-- generated on 2026-02-02T18:57:49.645593+00:00 by Eclipse SUMO duarouter 1.25.0
<duarouterConfiguration xmlns:xsi="http://www.w3.org/2001/XMLSchema-instance" xsi:noNamespaceSchemaLocation="http://sumo.dlr.de/xsd/duarouterConfiguration.xsd">

    <input>
        <net-file value="../networks/crossing/main.net.xml"/>
        <route-files value="../routes/crossing/train/10000/pedestrian.trips.xml"/>
    </input>

    <output>
        <output-file value="../routes/crossing/train/10000/pedestrian.rou.xml"/>
        <alternatives-output value="NUL"/>
    </output>

    <time>
        <begin value="0"/>
        <end value="3600.0"/>
    </time>

    <report>
        <no-warnings value="true"/>
        <ignore-errors value="true"/>
        <no-step-log value="true"/>
    </report>

</duarouterConfiguration>
-->

<routes xmlns:xsi="http://www.w3.org/2001/XMLSchema-instance" xsi:noNamespaceSchemaLocation="http://sumo.dlr.de/xsd/routes_file.xsd">
    <person id="pedestrian0" depart="14.00">
        <walk edges="TorPl_2_1 MalPl_1_1"/>
    </person>
    <person id="pedestrian1" depart="60.00">
        <walk edges="MalPl_2_1 MalPl_1_1"/>
    </person>
    <person id="pedestrian2" depart="93.00">
        <walk edges="MalPl_1_1 BynPl_1_1"/>
    </person>
    <person id="pedestrian3" depart="139.00">
        <walk edges="TorPl_2_1 MalPl_1_1"/>
    </person>
    <person id="pedestrian4" depart="190.00">
        <walk edges="BynPl_2_1"/>
    </person>
    <person id="pedestrian5" depart="212.00">
        <walk edges="TorPl_2_1"/>
    </person>
    <person id="pedestrian6" depart="225.00">
        <walk edges="BynPl_2_1 MalPl_1_1"/>
    </person>
    <person id="pedestrian7" depart="254.00">
        <walk edges="BynPl_1_1 MalSt_2_1"/>
    </person>
    <person id="pedestrian8" depart="257.00">
        <walk edges="MalSt_1_1 BynPl_2_1"/>
    </person>
    <person id="pedestrian9" depart="287.00">
        <walk edges="TorPl_1_1 MalSt_1_1"/>
    </person>
    <person id="pedestrian10" depart="291.00">
        <walk edges="BynPl_2_1 BynPl_1_1"/>
    </person>
    <person id="pedestrian11" depart="371.00">
        <walk edges="MalPl_1_1 BynPl_1_1"/>
    </person>
    <person id="pedestrian12" depart="463.00">
        <walk edges="MalSt_2_1 BynPl_1_1"/>
    </person>
    <person id="pedestrian13" depart="475.00">
        <walk edges="BynPl_2_1 BynPl_1_1"/>
    </person>
    <person id="pedestrian14" depart="490.00">
        <walk edges="MalSt_1_1"/>
    </person>
    <person id="pedestrian15" depart="494.00">
        <walk edges="MalPl_2_1 BynPl_2_1"/>
    </person>
    <person id="pedestrian16" depart="529.00">
        <walk edges="MalPl_1_1 MalPl_2_1"/>
    </person>
    <person id="pedestrian17" depart="546.00">
        <walk edges="MalSt_1_1 MalSt_2_1"/>
    </person>
    <person id="pedestrian18" depart="572.00">
        <walk edges="BynPl_1_1 TorPl_2_1"/>
    </person>
    <person id="pedestrian19" depart="579.00">
        <walk edges="MalPl_2_1 MalPl_1_1"/>
    </person>
    <person id="pedestrian20" depart="591.00">
        <walk edges="TorPl_2_1 TorPl_1_1"/>
    </person>
    <person id="pedestrian21" depart="619.00">
        <walk edges="MalPl_1_1 MalPl_2_1"/>
    </person>
    <person id="pedestrian22" depart="623.00">
        <walk edges="TorPl_1_1 MalSt_1_1"/>
    </person>
    <person id="pedestrian23" depart="635.00">
        <walk edges="MalSt_1_1"/>
    </person>
    <person id="pedestrian24" depart="635.00">
        <walk edges="MalPl_1_1 BynPl_2_1"/>
    </person>
    <person id="pedestrian25" depart="680.00">
        <walk edges="BynPl_1_1 MalSt_1_1"/>
    </person>
    <person id="pedestrian26" depart="701.00">
        <walk edges="MalPl_1_1 MalSt_2_1"/>
    </person>
    <person id="pedestrian27" depart="714.00">
        <walk edges="BynPl_1_1 MalSt_1_1"/>
    </person>
    <person id="pedestrian28" depart="717.00">
        <walk edges="BynPl_1_1 MalPl_1_1"/>
    </person>
    <person id="pedestrian29" depart="834.00">
        <walk edges="TorPl_1_1 MalPl_2_1"/>
    </person>
    <person id="pedestrian30" depart="855.00">
        <walk edges="BynPl_2_1 TorPl_2_1"/>
    </person>
    <person id="pedestrian31" depart="883.00">
        <walk edges="MalPl_1_1 BynPl_2_1"/>
    </person>
    <person id="pedestrian32" depart="897.00">
        <walk edges="BynPl_2_1 TorPl_2_1"/>
    </person>
    <person id="pedestrian33" depart="905.00">
        <walk edges="MalPl_2_1 BynPl_1_1"/>
    </person>
    <person id="pedestrian34" depart="910.00">
        <walk edges="MalPl_1_1 MalSt_1_1"/>
    </person>
    <person id="pedestrian35" depart="932.00">
        <walk edges="BynPl_1_1 MalPl_2_1"/>
    </person>
    <person id="pedestrian36" depart="945.00">
        <walk edges="TorPl_2_1 TorPl_1_1"/>
    </person>
    <person id="pedestrian37" depart="960.00">
        <walk edges="MalPl_1_1 BynPl_2_1"/>
    </person>
    <person id="pedestrian38" depart="979.00">
        <walk edges="BynPl_1_1 MalSt_1_1"/>
    </person>
    <person id="pedestrian39" depart="982.00">
        <walk edges="MalSt_2_1 BynPl_1_1"/>
    </person>
    <person id="pedestrian40" depart="987.00">
        <walk edges="MalPl_2_1 TorPl_2_1"/>
    </person>
    <person id="pedestrian41" depart="1017.00">
        <walk edges="MalSt_1_1 TorPl_2_1"/>
    </person>
    <person id="pedestrian42" depart="1042.00">
        <walk edges="MalPl_1_1 BynPl_2_1"/>
    </person>
    <person id="pedestrian43" depart="1084.00">
        <walk edges="MalPl_1_1 TorPl_1_1"/>
    </person>
    <person id="pedestrian44" depart="1101.00">
        <walk edges="MalPl_1_1"/>
    </person>
    <person id="pedestrian45" depart="1160.00">
        <walk edges="MalPl_1_1 BynPl_2_1"/>
    </person>
    <person id="pedestrian46" depart="1171.00">
        <walk edges="BynPl_1_1 BynPl_2_1"/>
    </person>
    <person id="pedestrian47" depart="1189.00">
        <walk edges="BynPl_2_1 BynPl_1_1"/>
    </person>
    <person id="pedestrian48" depart="1206.00">
        <walk edges="BynPl_2_1"/>
    </person>
    <person id="pedestrian49" depart="1253.00">
        <walk edges="MalSt_1_1 MalPl_1_1"/>
    </person>
    <person id="pedestrian50" depart="1339.00">
        <walk edges="MalPl_2_1 BynPl_2_1"/>
    </person>
    <person id="pedestrian51" depart="1396.00">
        <walk edges="TorPl_1_1 MalSt_2_1"/>
    </person>
    <person id="pedestrian52" depart="1403.00">
        <walk edges="MalPl_2_1 TorPl_1_1"/>
    </person>
    <person id="pedestrian53" depart="1407.00">
        <walk edges="BynPl_1_1 MalPl_2_1"/>
    </person>
    <person id="pedestrian54" depart="1409.00">
        <walk edges="MalSt_2_1 TorPl_1_1"/>
    </person>
    <person id="pedestrian55" depart="1434.00">
        <walk edges="MalSt_1_1 MalPl_2_1"/>
    </person>
    <person id="pedestrian56" depart="1488.00">
        <walk edges="MalSt_1_1 TorPl_2_1"/>
    </person>
    <person id="pedestrian57" depart="1513.00">
        <walk edges="TorPl_2_1 MalPl_1_1"/>
    </person>
    <person id="pedestrian58" depart="1580.00">
        <walk edges="TorPl_2_1 MalPl_1_1"/>
    </person>
    <person id="pedestrian59" depart="1606.00">
        <walk edges="BynPl_1_1 MalPl_1_1"/>
    </person>
    <person id="pedestrian60" depart="1660.00">
        <walk edges="TorPl_2_1 MalPl_2_1"/>
    </person>
    <person id="pedestrian61" depart="1711.00">
        <walk edges="BynPl_1_1 MalSt_1_1"/>
    </person>
    <person id="pedestrian62" depart="1747.00">
        <walk edges="BynPl_2_1 MalPl_2_1"/>
    </person>
    <person id="pedestrian63" depart="1768.00">
        <walk edges="TorPl_1_1 MalSt_1_1"/>
    </person>
    <person id="pedestrian64" depart="1941.00">
        <walk edges="MalPl_1_1 BynPl_1_1"/>
    </person>
    <person id="pedestrian65" depart="1942.00">
        <walk edges="TorPl_1_1 MalPl_2_1"/>
    </person>
    <person id="pedestrian66" depart="1999.00">
        <walk edges="TorPl_2_1 BynPl_2_1"/>
    </person>
    <person id="pedestrian67" depart="2024.00">
        <walk edges="MalSt_1_1 TorPl_2_1"/>
    </person>
    <person id="pedestrian68" depart="2031.00">
        <walk edges="MalPl_2_1 BynPl_2_1"/>
    </person>
    <person id="pedestrian69" depart="2080.00">
        <walk edges="TorPl_1_1 MalSt_2_1"/>
    </person>
    <person id="pedestrian70" depart="2089.00">
        <walk edges="TorPl_1_1 BynPl_2_1"/>
    </person>
    <person id="pedestrian71" depart="2150.00">
        <walk edges="BynPl_2_1 MalSt_1_1"/>
    </person>
    <person id="pedestrian72" depart="2152.00">
        <walk edges="BynPl_2_1 MalPl_2_1"/>
    </person>
    <person id="pedestrian73" depart="2160.00">
        <walk edges="TorPl_2_1 BynPl_2_1"/>
    </person>
    <person id="pedestrian74" depart="2181.00">
        <walk edges="MalSt_1_1 MalSt_2_1"/>
    </person>
    <person id="pedestrian75" depart="2206.00">
        <walk edges="TorPl_1_1 MalPl_1_1"/>
    </person>
    <person id="pedestrian76" depart="2227.00">
        <walk edges="MalSt_1_1 MalSt_2_1"/>
    </person>
    <person id="pedestrian77" depart="2283.00">
        <walk edges="MalPl_1_1 TorPl_2_1"/>
    </person>
    <person id="pedestrian78" depart="2290.00">
        <walk edges="MalPl_1_1 MalPl_2_1"/>
    </person>
    <person id="pedestrian79" depart="2291.00">
        <walk edges="MalSt_1_1 MalPl_2_1"/>
    </person>
    <person id="pedestrian80" depart="2319.00">
        <walk edges="TorPl_2_1 MalPl_1_1"/>
    </person>
    <person id="pedestrian81" depart="2357.00">
        <walk edges="MalSt_1_1 TorPl_2_1"/>
    </person>
    <person id="pedestrian82" depart="2392.00">
        <walk edges="MalSt_1_1 MalPl_1_1"/>
    </person>
    <person id="pedestrian83" depart="2508.00">
        <walk edges="BynPl_2_1 TorPl_2_1"/>
    </person>
    <person id="pedestrian84" depart="2551.00">
        <walk edges="MalPl_1_1 TorPl_1_1"/>
    </person>
    <person id="pedestrian85" depart="2573.00">
        <walk edges="BynPl_2_1 TorPl_2_1"/>
    </person>
    <person id="pedestrian86" depart="2579.00">
        <walk edges="TorPl_2_1 MalSt_2_1"/>
    </person>
    <person id="pedestrian87" depart="2622.00">
        <walk edges="TorPl_1_1 MalSt_1_1"/>
    </person>
    <person id="pedestrian88" depart="2627.00">
        <walk edges="BynPl_1_1 MalSt_1_1"/>
    </person>
    <person id="pedestrian89" depart="2679.00">
        <walk edges="MalSt_1_1 TorPl_1_1"/>
    </person>
    <person id="pedestrian90" depart="2709.00">
        <walk edges="MalPl_1_1 BynPl_1_1"/>
    </person>
    <person id="pedestrian91" depart="2731.00">
        <walk edges="TorPl_2_1 MalPl_1_1"/>
    </person>
    <person id="pedestrian92" depart="2783.00">
        <walk edges="TorPl_2_1 BynPl_2_1"/>
    </person>
    <person id="pedestrian93" depart="2817.00">
        <walk edges="MalPl_1_1"/>
    </person>
    <person id="pedestrian94" depart="3011.00">
        <walk edges="TorPl_1_1 MalPl_2_1"/>
    </person>
    <person id="pedestrian95" depart="3058.00">
        <walk edges="MalPl_1_1 BynPl_1_1"/>
    </person>
    <person id="pedestrian96" depart="3130.00">
        <walk edges="TorPl_1_1 BynPl_1_1"/>
    </person>
    <person id="pedestrian97" depart="3133.00">
        <walk edges="TorPl_2_1 MalSt_2_1"/>
    </person>
    <person id="pedestrian98" depart="3158.00">
        <walk edges="TorPl_1_1 MalSt_2_1"/>
    </person>
    <person id="pedestrian99" depart="3203.00">
        <walk edges="MalPl_2_1 BynPl_2_1"/>
    </person>
    <person id="pedestrian100" depart="3286.00">
        <walk edges="MalPl_1_1 TorPl_2_1"/>
    </person>
    <person id="pedestrian101" depart="3309.00">
        <walk edges="MalPl_1_1 BynPl_2_1"/>
    </person>
    <person id="pedestrian102" depart="3333.00">
        <walk edges="MalPl_2_1 BynPl_1_1"/>
    </person>
    <person id="pedestrian103" depart="3350.00">
        <walk edges="MalPl_2_1 MalSt_1_1"/>
    </person>
    <person id="pedestrian104" depart="3384.00">
        <walk edges="BynPl_2_1 TorPl_1_1"/>
    </person>
    <person id="pedestrian105" depart="3402.00">
        <walk edges="MalSt_2_1 BynPl_1_1"/>
    </person>
    <person id="pedestrian106" depart="3412.00">
        <walk edges="MalPl_1_1 BynPl_2_1"/>
    </person>
    <person id="pedestrian107" depart="3441.00">
        <walk edges="MalSt_1_1 BynPl_2_1"/>
    </person>
    <person id="pedestrian108" depart="3470.00">
        <walk edges="MalPl_2_1 TorPl_1_1"/>
    </person>
    <person id="pedestrian109" depart="3475.00">
        <walk edges="BynPl_2_1 BynPl_1_1"/>
    </person>
    <person id="pedestrian110" depart="3498.00">
        <walk edges="MalPl_1_1 MalSt_2_1"/>
    </person>
    <person id="pedestrian111" depart="3508.00">
        <walk edges="MalSt_1_1 BynPl_1_1"/>
    </person>
    <person id="pedestrian112" depart="3598.00">
        <walk edges="MalSt_1_1 TorPl_1_1"/>
    </person>
</routes>
