<?xml version="1.0" encoding="UTF-8"?>

<!-- generated on 2025-12-29 11:55:39.334098 by Eclipse SUMO randomTrips.py UNKNOWN
<configuration>
    <net-file value="../networks/crossing/main.net.xml"/>
    <output-trip-file value="../routes/crossing/eval/50/pedestrian.trips.xml"/>
    <route-file value="../routes/crossing/eval/50/pedestrian.rou.xml"/>
    <pedestrians value="True"/>
    <prefix value="pedestrian"/>
    <seed value="50"/>
    <insertion-density value="400.0"/>
    <binomial value="100"/>
</configuration>
-->

<!-- generated on 2025-12-29T11:55:39.329702+00:00 by Eclipse SUMO duarouter 1.25.0
<duarouterConfiguration xmlns:xsi="http://www.w3.org/2001/XMLSchema-instance" xsi:noNamespaceSchemaLocation="http://sumo.dlr.de/xsd/duarouterConfiguration.xsd">

    <input>
        <net-file value="../networks/crossing/main.net.xml"/>
        <route-files value="../routes/crossing/eval/50/pedestrian.trips.xml"/>
    </input>

    <output>
        <output-file value="../routes/crossing/eval/50/pedestrian.rou.xml"/>
        <alternatives-output value="NUL"/>
    </output>

    <time>
        <begin value="0"/>
        <end value="3600.0"/>
    </time>

    <report>
        <no-warnings value="true"/>
        <ignore-errors value="true"/>
        <no-step-log value="true"/>
    </report>

</duarouterConfiguration>
-->

<routes xmlns:xsi="http://www.w3.org/2001/XMLSchema-instance" xsi:noNamespaceSchemaLocation="http://sumo.dlr.de/xsd/routes_file.xsd">
    <person id="pedestrian0" depart="38.00">
        <walk edges="TorPl_2_1 TorPl_1_4"/>
    </person>
    <person id="pedestrian1" depart="42.00">
        <walk edges="MalSt_2_1"/>
    </person>
    <person id="pedestrian2" depart="138.00">
        <walk edges="MalPl_1_1 TorPl_1_4"/>
    </person>
    <person id="pedestrian3" depart="150.00">
        <walk edges="BynPl_1_1 MalPl_2_1"/>
    </person>
    <person id="pedestrian4" depart="156.00">
        <walk edges="MalPl_2_1 TorPl_2_1"/>
    </person>
    <person id="pedestrian5" depart="161.00">
        <walk edges="TorPl_1_4 MalPl_2_1"/>
    </person>
    <person id="pedestrian6" depart="174.00">
        <walk edges="BynPl_2_3 MalSt_2_1"/>
    </person>
    <person id="pedestrian7" depart="181.00">
        <walk edges="TorPl_1_4 MalSt_1_1"/>
    </person>
    <person id="pedestrian8" depart="211.00">
        <walk edges="MalSt_1_1 BynPl_1_1"/>
    </person>
    <person id="pedestrian9" depart="235.00">
        <walk edges="MalPl_2_1 TorPl_1_4"/>
    </person>
    <person id="pedestrian10" depart="239.00">
        <walk edges="TorPl_2_1 BynPl_2_3"/>
    </person>
    <person id="pedestrian11" depart="262.00">
        <walk edges="MalSt_1_1 TorPl_2_1"/>
    </person>
    <person id="pedestrian12" depart="263.00">
        <walk edges="MalSt_2_1 BynPl_2_3"/>
    </person>
    <person id="pedestrian13" depart="276.00">
        <walk edges="BynPl_2_3 MalSt_2_1"/>
    </person>
    <person id="pedestrian14" depart="281.00">
        <walk edges="MalSt_1_1 MalPl_1_1"/>
    </person>
    <person id="pedestrian15" depart="299.00">
        <walk edges="MalSt_2_1 TorPl_2_1"/>
    </person>
    <person id="pedestrian16" depart="362.00">
        <walk edges="MalSt_1_1 TorPl_1_4"/>
    </person>
    <person id="pedestrian17" depart="368.00">
        <walk edges="MalPl_1_1"/>
    </person>
    <person id="pedestrian18" depart="441.00">
        <walk edges="MalPl_1_1"/>
    </person>
    <person id="pedestrian19" depart="454.00">
        <walk edges="MalSt_2_1 BynPl_2_3"/>
    </person>
    <person id="pedestrian20" depart="469.00">
        <walk edges="TorPl_2_1 MalSt_2_1"/>
    </person>
    <person id="pedestrian21" depart="517.00">
        <walk edges="MalPl_2_1"/>
    </person>
    <person id="pedestrian22" depart="537.00">
        <walk edges="MalPl_1_1 MalSt_1_1"/>
    </person>
    <person id="pedestrian23" depart="549.00">
        <walk edges="MalSt_1_1 BynPl_2_3"/>
    </person>
    <person id="pedestrian24" depart="558.00">
        <walk edges="MalPl_1_1 MalSt_1_1"/>
    </person>
    <person id="pedestrian25" depart="581.00">
        <walk edges="BynPl_2_3 MalPl_2_1"/>
    </person>
    <person id="pedestrian26" depart="598.00">
        <walk edges="MalSt_1_1"/>
    </person>
    <person id="pedestrian27" depart="605.00">
        <walk edges="BynPl_2_3 MalSt_1_1"/>
    </person>
    <person id="pedestrian28" depart="609.00">
        <walk edges="BynPl_2_3 MalPl_2_1"/>
    </person>
    <person id="pedestrian29" depart="623.00">
        <walk edges="TorPl_1_4 MalSt_1_1"/>
    </person>
    <person id="pedestrian30" depart="646.00">
        <walk edges="MalSt_1_1 MalSt_2_1"/>
    </person>
    <person id="pedestrian31" depart="672.00">
        <walk edges="MalPl_2_1"/>
    </person>
    <person id="pedestrian32" depart="691.00">
        <walk edges="TorPl_2_1 BynPl_2_3"/>
    </person>
    <person id="pedestrian33" depart="691.00">
        <walk edges="MalPl_2_1 MalSt_1_1"/>
    </person>
    <person id="pedestrian34" depart="700.00">
        <walk edges="MalSt_2_1 TorPl_1_4"/>
    </person>
    <person id="pedestrian35" depart="723.00">
        <walk edges="TorPl_1_4 MalPl_2_1"/>
    </person>
    <person id="pedestrian36" depart="724.00">
        <walk edges="TorPl_2_1"/>
    </person>
    <person id="pedestrian37" depart="734.00">
        <walk edges="MalSt_2_1 BynPl_2_3"/>
    </person>
    <person id="pedestrian38" depart="740.00">
        <walk edges="TorPl_2_1 BynPl_2_3"/>
    </person>
    <person id="pedestrian39" depart="757.00">
        <walk edges="TorPl_2_1 MalSt_1_1"/>
    </person>
    <person id="pedestrian40" depart="772.00">
        <walk edges="BynPl_1_1"/>
    </person>
    <person id="pedestrian41" depart="773.00">
        <walk edges="BynPl_1_1"/>
    </person>
    <person id="pedestrian42" depart="775.00">
        <walk edges="TorPl_2_1 MalSt_2_1"/>
    </person>
    <person id="pedestrian43" depart="788.00">
        <walk edges="TorPl_1_4 MalPl_1_1"/>
    </person>
    <person id="pedestrian44" depart="798.00">
        <walk edges="BynPl_1_1 MalSt_2_1"/>
    </person>
    <person id="pedestrian45" depart="812.00">
        <walk edges="MalSt_2_1 MalPl_2_1"/>
    </person>
    <person id="pedestrian46" depart="828.00">
        <walk edges="MalSt_1_1 BynPl_2_3"/>
    </person>
    <person id="pedestrian47" depart="830.00">
        <walk edges="TorPl_2_1 MalPl_1_1"/>
    </person>
    <person id="pedestrian48" depart="859.00">
        <walk edges="MalPl_1_1 MalPl_2_1"/>
    </person>
    <person id="pedestrian49" depart="862.00">
        <walk edges="MalPl_1_1 BynPl_1_1"/>
    </person>
    <person id="pedestrian50" depart="865.00">
        <walk edges="MalPl_1_1 TorPl_2_1"/>
    </person>
    <person id="pedestrian51" depart="871.00">
        <walk edges="MalPl_2_1 BynPl_1_1"/>
    </person>
    <person id="pedestrian52" depart="881.00">
        <walk edges="BynPl_1_1 MalSt_1_1"/>
    </person>
    <person id="pedestrian53" depart="900.00">
        <walk edges="BynPl_1_1 TorPl_2_1"/>
    </person>
    <person id="pedestrian54" depart="941.00">
        <walk edges="TorPl_2_1"/>
    </person>
    <person id="pedestrian55" depart="979.00">
        <walk edges="BynPl_2_3 MalPl_1_1"/>
    </person>
    <person id="pedestrian56" depart="1004.00">
        <walk edges="MalSt_1_1 MalSt_2_1"/>
    </person>
    <person id="pedestrian57" depart="1038.00">
        <walk edges="MalSt_2_1 BynPl_1_1"/>
    </person>
    <person id="pedestrian58" depart="1084.00">
        <walk edges="MalPl_2_1 BynPl_1_1"/>
    </person>
    <person id="pedestrian59" depart="1097.00">
        <walk edges="MalPl_2_1 MalSt_1_1"/>
    </person>
    <person id="pedestrian60" depart="1135.00">
        <walk edges="BynPl_1_1 TorPl_1_4"/>
    </person>
    <person id="pedestrian61" depart="1144.00">
        <walk edges="MalSt_1_1 MalSt_2_1"/>
    </person>
    <person id="pedestrian62" depart="1149.00">
        <walk edges="MalPl_2_1 MalSt_1_1"/>
    </person>
    <person id="pedestrian63" depart="1163.00">
        <walk edges="BynPl_2_3 BynPl_1_1"/>
    </person>
    <person id="pedestrian64" depart="1164.00">
        <walk edges="MalPl_2_1 TorPl_2_1"/>
    </person>
    <person id="pedestrian65" depart="1175.00">
        <walk edges="TorPl_2_1 MalPl_1_1"/>
    </person>
    <person id="pedestrian66" depart="1187.00">
        <walk edges="TorPl_1_4"/>
    </person>
    <person id="pedestrian67" depart="1196.00">
        <walk edges="BynPl_2_3 MalSt_2_1"/>
    </person>
    <person id="pedestrian68" depart="1200.00">
        <walk edges="MalPl_1_1 MalSt_2_1"/>
    </person>
    <person id="pedestrian69" depart="1209.00">
        <walk edges="TorPl_2_1 MalPl_1_1"/>
    </person>
    <person id="pedestrian70" depart="1239.00">
        <walk edges="TorPl_1_4 MalSt_2_1"/>
    </person>
    <person id="pedestrian71" depart="1244.00">
        <walk edges="TorPl_1_4 TorPl_2_1"/>
    </person>
    <person id="pedestrian72" depart="1279.00">
        <walk edges="MalSt_2_1 TorPl_2_1"/>
    </person>
    <person id="pedestrian73" depart="1305.00">
        <walk edges="TorPl_2_1 BynPl_1_1"/>
    </person>
    <person id="pedestrian74" depart="1321.00">
        <walk edges="BynPl_2_3 TorPl_1_4"/>
    </person>
    <person id="pedestrian75" depart="1351.00">
        <walk edges="BynPl_2_3"/>
    </person>
    <person id="pedestrian76" depart="1382.00">
        <walk edges="TorPl_2_1 BynPl_2_3"/>
    </person>
    <person id="pedestrian77" depart="1406.00">
        <walk edges="MalSt_2_1"/>
    </person>
    <person id="pedestrian78" depart="1408.00">
        <walk edges="TorPl_2_1 TorPl_1_4"/>
    </person>
    <person id="pedestrian79" depart="1429.00">
        <walk edges="MalSt_1_1 MalPl_2_1"/>
    </person>
    <person id="pedestrian80" depart="1439.00">
        <walk edges="BynPl_2_3 MalSt_2_1"/>
    </person>
    <person id="pedestrian81" depart="1445.00">
        <walk edges="MalPl_1_1 MalSt_1_1"/>
    </person>
    <person id="pedestrian82" depart="1465.00">
        <walk edges="BynPl_1_1 TorPl_1_4"/>
    </person>
    <person id="pedestrian83" depart="1478.00">
        <walk edges="MalSt_2_1 MalPl_1_1"/>
    </person>
    <person id="pedestrian84" depart="1534.00">
        <walk edges="MalSt_2_1 MalPl_1_1"/>
    </person>
    <person id="pedestrian85" depart="1553.00">
        <walk edges="MalPl_2_1 BynPl_1_1"/>
    </person>
    <person id="pedestrian86" depart="1612.00">
        <walk edges="MalPl_1_1 MalSt_1_1"/>
    </person>
    <person id="pedestrian87" depart="1696.00">
        <walk edges="BynPl_1_1"/>
    </person>
    <person id="pedestrian88" depart="1702.00">
        <walk edges="TorPl_1_4 MalSt_2_1"/>
    </person>
    <person id="pedestrian89" depart="1712.00">
        <walk edges="BynPl_1_1 BynPl_2_3"/>
    </person>
    <person id="pedestrian90" depart="1719.00">
        <walk edges="MalPl_1_1 TorPl_1_4"/>
    </person>
    <person id="pedestrian91" depart="1732.00">
        <walk edges="MalPl_2_1 MalPl_1_1"/>
    </person>
    <person id="pedestrian92" depart="1742.00">
        <walk edges="TorPl_1_4 MalPl_2_1"/>
    </person>
    <person id="pedestrian93" depart="1756.00">
        <walk edges="TorPl_1_4 MalPl_2_1"/>
    </person>
    <person id="pedestrian94" depart="1764.00">
        <walk edges="BynPl_1_1 MalSt_2_1"/>
    </person>
    <person id="pedestrian95" depart="1766.00">
        <walk edges="TorPl_1_4 TorPl_2_1"/>
    </person>
    <person id="pedestrian96" depart="1768.00">
        <walk edges="TorPl_1_4 BynPl_2_3"/>
    </person>
    <person id="pedestrian97" depart="1774.00">
        <walk edges="MalPl_2_1 TorPl_1_4"/>
    </person>
    <person id="pedestrian98" depart="1801.00">
        <walk edges="MalSt_2_1 BynPl_2_3"/>
    </person>
    <person id="pedestrian99" depart="1836.00">
        <walk edges="BynPl_2_3"/>
    </person>
    <person id="pedestrian100" depart="1846.00">
        <walk edges="BynPl_2_3 BynPl_1_1"/>
    </person>
    <person id="pedestrian101" depart="1854.00">
        <walk edges="BynPl_2_3 MalSt_1_1"/>
    </person>
    <person id="pedestrian102" depart="1860.00">
        <walk edges="MalPl_1_1"/>
    </person>
    <person id="pedestrian103" depart="1872.00">
        <walk edges="MalSt_1_1 BynPl_1_1"/>
    </person>
    <person id="pedestrian104" depart="1875.00">
        <walk edges="MalPl_1_1 MalSt_2_1"/>
    </person>
    <person id="pedestrian105" depart="1876.00">
        <walk edges="BynPl_1_1 BynPl_2_3"/>
    </person>
    <person id="pedestrian106" depart="1892.00">
        <walk edges="MalPl_2_1 TorPl_1_4"/>
    </person>
    <person id="pedestrian107" depart="1903.00">
        <walk edges="MalSt_2_1 BynPl_1_1"/>
    </person>
    <person id="pedestrian108" depart="1931.00">
        <walk edges="TorPl_2_1 MalSt_2_1"/>
    </person>
    <person id="pedestrian109" depart="1991.00">
        <walk edges="MalSt_1_1 MalPl_2_1"/>
    </person>
    <person id="pedestrian110" depart="1994.00">
        <walk edges="BynPl_2_3 MalSt_2_1"/>
    </person>
    <person id="pedestrian111" depart="2008.00">
        <walk edges="TorPl_2_1"/>
    </person>
    <person id="pedestrian112" depart="2021.00">
        <walk edges="TorPl_1_4 TorPl_2_1"/>
    </person>
    <person id="pedestrian113" depart="2022.00">
        <walk edges="MalSt_2_1 BynPl_1_1"/>
    </person>
    <person id="pedestrian114" depart="2040.00">
        <walk edges="MalPl_1_1"/>
    </person>
    <person id="pedestrian115" depart="2050.00">
        <walk edges="MalPl_2_1 TorPl_1_4"/>
    </person>
    <person id="pedestrian116" depart="2060.00">
        <walk edges="MalSt_1_1"/>
    </person>
    <person id="pedestrian117" depart="2069.00">
        <walk edges="MalPl_1_1"/>
    </person>
    <person id="pedestrian118" depart="2094.00">
        <walk edges="BynPl_1_1 TorPl_1_4"/>
    </person>
    <person id="pedestrian119" depart="2103.00">
        <walk edges="MalPl_2_1"/>
    </person>
    <person id="pedestrian120" depart="2107.00">
        <walk edges="TorPl_2_1 MalPl_1_1"/>
    </person>
    <person id="pedestrian121" depart="2121.00">
        <walk edges="TorPl_1_4 MalSt_1_1"/>
    </person>
    <person id="pedestrian122" depart="2127.00">
        <walk edges="TorPl_2_1 BynPl_1_1"/>
    </person>
    <person id="pedestrian123" depart="2138.00">
        <walk edges="MalPl_2_1 MalSt_2_1"/>
    </person>
    <person id="pedestrian124" depart="2165.00">
        <walk edges="BynPl_2_3 TorPl_2_1"/>
    </person>
    <person id="pedestrian125" depart="2167.00">
        <walk edges="BynPl_1_1 MalSt_1_1"/>
    </person>
    <person id="pedestrian126" depart="2179.00">
        <walk edges="MalPl_2_1"/>
    </person>
    <person id="pedestrian127" depart="2221.00">
        <walk edges="BynPl_1_1"/>
    </person>
    <person id="pedestrian128" depart="2235.00">
        <walk edges="MalSt_1_1 MalSt_2_1"/>
    </person>
    <person id="pedestrian129" depart="2259.00">
        <walk edges="MalSt_2_1"/>
    </person>
    <person id="pedestrian130" depart="2281.00">
        <walk edges="MalPl_2_1 TorPl_1_4"/>
    </person>
    <person id="pedestrian131" depart="2293.00">
        <walk edges="MalPl_1_1 MalPl_2_1"/>
    </person>
    <person id="pedestrian132" depart="2294.00">
        <walk edges="BynPl_1_1 TorPl_2_1"/>
    </person>
    <person id="pedestrian133" depart="2299.00">
        <walk edges="BynPl_2_3 TorPl_1_4"/>
    </person>
    <person id="pedestrian134" depart="2333.00">
        <walk edges="BynPl_1_1 MalSt_2_1"/>
    </person>
    <person id="pedestrian135" depart="2335.00">
        <walk edges="TorPl_1_4 TorPl_2_1"/>
    </person>
    <person id="pedestrian136" depart="2345.00">
        <walk edges="MalPl_1_1 MalSt_2_1"/>
    </person>
    <person id="pedestrian137" depart="2355.00">
        <walk edges="MalSt_1_1 MalSt_2_1"/>
    </person>
    <person id="pedestrian138" depart="2374.00">
        <walk edges="TorPl_1_4 BynPl_2_3"/>
    </person>
    <person id="pedestrian139" depart="2410.00">
        <walk edges="MalPl_1_1 MalPl_2_1"/>
    </person>
    <person id="pedestrian140" depart="2412.00">
        <walk edges="MalPl_1_1 TorPl_2_1"/>
    </person>
    <person id="pedestrian141" depart="2457.00">
        <walk edges="MalPl_1_1"/>
    </person>
    <person id="pedestrian142" depart="2460.00">
        <walk edges="MalSt_2_1 MalSt_1_1"/>
    </person>
    <person id="pedestrian143" depart="2476.00">
        <walk edges="TorPl_2_1 MalPl_2_1"/>
    </person>
    <person id="pedestrian144" depart="2480.00">
        <walk edges="BynPl_2_3 BynPl_1_1"/>
    </person>
    <person id="pedestrian145" depart="2495.00">
        <walk edges="BynPl_1_1 MalSt_2_1"/>
    </person>
    <person id="pedestrian146" depart="2510.00">
        <walk edges="MalPl_1_1 MalSt_1_1"/>
    </person>
    <person id="pedestrian147" depart="2521.00">
        <walk edges="MalSt_1_1 MalPl_1_1"/>
    </person>
    <person id="pedestrian148" depart="2523.00">
        <walk edges="TorPl_2_1 BynPl_1_1"/>
    </person>
    <person id="pedestrian149" depart="2563.00">
        <walk edges="MalSt_1_1"/>
    </person>
    <person id="pedestrian150" depart="2591.00">
        <walk edges="TorPl_1_4 MalPl_1_1"/>
    </person>
    <person id="pedestrian151" depart="2598.00">
        <walk edges="MalSt_2_1 MalSt_1_1"/>
    </person>
    <person id="pedestrian152" depart="2601.00">
        <walk edges="BynPl_2_3 TorPl_2_1"/>
    </person>
    <person id="pedestrian153" depart="2614.00">
        <walk edges="TorPl_2_1"/>
    </person>
    <person id="pedestrian154" depart="2616.00">
        <walk edges="BynPl_2_3 MalSt_1_1"/>
    </person>
    <person id="pedestrian155" depart="2624.00">
        <walk edges="MalPl_1_1 MalSt_1_1"/>
    </person>
    <person id="pedestrian156" depart="2646.00">
        <walk edges="MalPl_1_1 TorPl_2_1"/>
    </person>
    <person id="pedestrian157" depart="2693.00">
        <walk edges="MalSt_2_1 BynPl_1_1"/>
    </person>
    <person id="pedestrian158" depart="2700.00">
        <walk edges="MalSt_2_1"/>
    </person>
    <person id="pedestrian159" depart="2711.00">
        <walk edges="MalSt_2_1 MalPl_2_1"/>
    </person>
    <person id="pedestrian160" depart="2712.00">
        <walk edges="TorPl_1_4 BynPl_2_3"/>
    </person>
    <person id="pedestrian161" depart="2746.00">
        <walk edges="MalSt_2_1 TorPl_1_4"/>
    </person>
    <person id="pedestrian162" depart="2780.00">
        <walk edges="MalPl_1_1 MalPl_2_1"/>
    </person>
    <person id="pedestrian163" depart="2797.00">
        <walk edges="TorPl_2_1"/>
    </person>
    <person id="pedestrian164" depart="2797.00">
        <walk edges="BynPl_2_3 MalSt_2_1"/>
    </person>
    <person id="pedestrian165" depart="2811.00">
        <walk edges="MalPl_2_1 TorPl_2_1"/>
    </person>
    <person id="pedestrian166" depart="2813.00">
        <walk edges="MalSt_2_1 MalSt_1_1"/>
    </person>
    <person id="pedestrian167" depart="2852.00">
        <walk edges="MalSt_2_1 BynPl_1_1"/>
    </person>
    <person id="pedestrian168" depart="2864.00">
        <walk edges="BynPl_2_3 TorPl_2_1"/>
    </person>
    <person id="pedestrian169" depart="2865.00">
        <walk edges="MalSt_1_1 BynPl_2_3"/>
    </person>
    <person id="pedestrian170" depart="2901.00">
        <walk edges="MalPl_1_1"/>
    </person>
    <person id="pedestrian171" depart="2903.00">
        <walk edges="MalSt_2_1"/>
    </person>
    <person id="pedestrian172" depart="2925.00">
        <walk edges="MalPl_2_1"/>
    </person>
    <person id="pedestrian173" depart="2925.00">
        <walk edges="BynPl_2_3 MalPl_1_1"/>
    </person>
    <person id="pedestrian174" depart="2926.00">
        <walk edges="BynPl_2_3 TorPl_2_1"/>
    </person>
    <person id="pedestrian175" depart="2933.00">
        <walk edges="BynPl_2_3"/>
    </person>
    <person id="pedestrian176" depart="2942.00">
        <walk edges="MalPl_1_1 MalSt_1_1"/>
    </person>
    <person id="pedestrian177" depart="2961.00">
        <walk edges="MalSt_2_1 BynPl_2_3"/>
    </person>
    <person id="pedestrian178" depart="2973.00">
        <walk edges="MalSt_1_1 BynPl_1_1"/>
    </person>
    <person id="pedestrian179" depart="2986.00">
        <walk edges="MalPl_2_1 BynPl_2_3"/>
    </person>
    <person id="pedestrian180" depart="3003.00">
        <walk edges="BynPl_2_3"/>
    </person>
    <person id="pedestrian181" depart="3004.00">
        <walk edges="MalPl_2_1 TorPl_2_1"/>
    </person>
    <person id="pedestrian182" depart="3018.00">
        <walk edges="TorPl_2_1 MalSt_2_1"/>
    </person>
    <person id="pedestrian183" depart="3022.00">
        <walk edges="BynPl_2_3 MalSt_2_1"/>
    </person>
    <person id="pedestrian184" depart="3033.00">
        <walk edges="MalSt_1_1 BynPl_2_3"/>
    </person>
    <person id="pedestrian185" depart="3034.00">
        <walk edges="TorPl_1_4 TorPl_2_1"/>
    </person>
    <person id="pedestrian186" depart="3045.00">
        <walk edges="MalSt_1_1 MalSt_2_1"/>
    </person>
    <person id="pedestrian187" depart="3048.00">
        <walk edges="TorPl_2_1 TorPl_1_4"/>
    </person>
    <person id="pedestrian188" depart="3068.00">
        <walk edges="BynPl_1_1 TorPl_2_1"/>
    </person>
    <person id="pedestrian189" depart="3072.00">
        <walk edges="MalSt_1_1 BynPl_2_3"/>
    </person>
    <person id="pedestrian190" depart="3073.00">
        <walk edges="MalPl_1_1 MalPl_2_1"/>
    </person>
    <person id="pedestrian191" depart="3080.00">
        <walk edges="BynPl_1_1 MalPl_1_1"/>
    </person>
    <person id="pedestrian192" depart="3086.00">
        <walk edges="MalSt_2_1 MalPl_2_1"/>
    </person>
    <person id="pedestrian193" depart="3087.00">
        <walk edges="TorPl_1_4 TorPl_2_1"/>
    </person>
    <person id="pedestrian194" depart="3093.00">
        <walk edges="TorPl_2_1 MalPl_2_1"/>
    </person>
    <person id="pedestrian195" depart="3119.00">
        <walk edges="TorPl_2_1 BynPl_2_3"/>
    </person>
    <person id="pedestrian196" depart="3131.00">
        <walk edges="TorPl_1_4 MalPl_2_1"/>
    </person>
    <person id="pedestrian197" depart="3173.00">
        <walk edges="TorPl_1_4 BynPl_2_3"/>
    </person>
    <person id="pedestrian198" depart="3179.00">
        <walk edges="TorPl_1_4 BynPl_1_1"/>
    </person>
    <person id="pedestrian199" depart="3184.00">
        <walk edges="BynPl_2_3 BynPl_1_1"/>
    </person>
    <person id="pedestrian200" depart="3204.00">
        <walk edges="BynPl_1_1 MalPl_2_1"/>
    </person>
    <person id="pedestrian201" depart="3209.00">
        <walk edges="TorPl_1_4 TorPl_2_1"/>
    </person>
    <person id="pedestrian202" depart="3265.00">
        <walk edges="MalPl_2_1 MalPl_1_1"/>
    </person>
    <person id="pedestrian203" depart="3267.00">
        <walk edges="MalPl_2_1 BynPl_2_3"/>
    </person>
    <person id="pedestrian204" depart="3301.00">
        <walk edges="TorPl_1_4 MalPl_2_1"/>
    </person>
    <person id="pedestrian205" depart="3313.00">
        <walk edges="TorPl_2_1 BynPl_2_3"/>
    </person>
    <person id="pedestrian206" depart="3340.00">
        <walk edges="TorPl_1_4 MalPl_2_1"/>
    </person>
    <person id="pedestrian207" depart="3368.00">
        <walk edges="TorPl_1_4 BynPl_2_3"/>
    </person>
    <person id="pedestrian208" depart="3370.00">
        <walk edges="BynPl_2_3 MalPl_1_1"/>
    </person>
    <person id="pedestrian209" depart="3374.00">
        <walk edges="MalPl_1_1 MalPl_2_1"/>
    </person>
    <person id="pedestrian210" depart="3381.00">
        <walk edges="TorPl_1_4 BynPl_2_3"/>
    </person>
    <person id="pedestrian211" depart="3382.00">
        <walk edges="MalSt_1_1 TorPl_1_4"/>
    </person>
    <person id="pedestrian212" depart="3386.00">
        <walk edges="TorPl_1_4 TorPl_2_1"/>
    </person>
    <person id="pedestrian213" depart="3413.00">
        <walk edges="MalPl_1_1 MalSt_2_1"/>
    </person>
    <person id="pedestrian214" depart="3435.00">
        <walk edges="TorPl_1_4 TorPl_2_1"/>
    </person>
    <person id="pedestrian215" depart="3508.00">
        <walk edges="TorPl_1_4 MalPl_2_1"/>
    </person>
    <person id="pedestrian216" depart="3543.00">
        <walk edges="TorPl_2_1 BynPl_1_1"/>
    </person>
    <person id="pedestrian217" depart="3567.00">
        <walk edges="MalSt_2_1 BynPl_1_1"/>
    </person>
    <person id="pedestrian218" depart="3583.00">
        <walk edges="MalSt_1_1 MalPl_1_1"/>
    </person>
</routes>
