<?xml version="1.0" encoding="UTF-8"?>

<!-- generated on 2026-01-25 22:05:24.105663 by Eclipse SUMO randomTrips.py UNKNOWN
<configuration>
    <net-file value="../networks/crossing/main.net.xml"/>
    <output-trip-file value="../routes/crossing/train/2500/pedestrian.trips.xml"/>
    <route-file value="../routes/crossing/train/2500/pedestrian.rou.xml"/>
    <pedestrians value="True"/>
    <prefix value="pedestrian"/>
    <seed value="2500"/>
    <insertion-density value="200.0"/>
    <binomial value="100"/>
</configuration>
-->

<!-- generated on 2026-01-25T22:05:24.101660+00:00 by Eclipse SUMO duarouter 1.25.0
<duarouterConfiguration xmlns:xsi="http://www.w3.org/2001/XMLSchema-instance" xsi:noNamespaceSchemaLocation="http://sumo.dlr.de/xsd/duarouterConfiguration.xsd">

    <input>
        <net-file value="../networks/crossing/main.net.xml"/>
        <route-files value="../routes/crossing/train/2500/pedestrian.trips.xml"/>
    </input>

    <output>
        <output-file value="../routes/crossing/train/2500/pedestrian.rou.xml"/>
        <alternatives-output value="NUL"/>
    </output>

    <time>
        <begin value="0"/>
        <end value="3600.0"/>
    </time>

    <report>
        <no-warnings value="true"/>
        <ignore-errors value="true"/>
        <no-step-log value="true"/>
    </report>

</duarouterConfiguration>
-->

<routes xmlns:xsi="http://www.w3.org/2001/XMLSchema-instance" xsi:noNamespaceSchemaLocation="http://sumo.dlr.de/xsd/routes_file.xsd">
    <person id="pedestrian0" depart="82.00">
        <walk edges="TorPl_1_1 MalSt_1_1"/>
    </person>
    <person id="pedestrian1" depart="84.00">
        <walk edges="BynPl_2_1 MalSt_1_1"/>
    </person>
    <person id="pedestrian2" depart="141.00">
        <walk edges="MalSt_1_1"/>
    </person>
    <person id="pedestrian3" depart="151.00">
        <walk edges="BynPl_2_1"/>
    </person>
    <person id="pedestrian4" depart="155.00">
        <walk edges="MalPl_1_1 MalSt_1_1"/>
    </person>
    <person id="pedestrian5" depart="167.00">
        <walk edges="MalSt_1_1 BynPl_2_1"/>
    </person>
    <person id="pedestrian6" depart="179.00">
        <walk edges="BynPl_1_1 TorPl_2_1"/>
    </person>
    <person id="pedestrian7" depart="202.00">
        <walk edges="TorPl_1_1 BynPl_1_1"/>
    </person>
    <person id="pedestrian8" depart="213.00">
        <walk edges="TorPl_1_1 MalSt_1_1"/>
    </person>
    <person id="pedestrian9" depart="284.00">
        <walk edges="MalSt_2_1 TorPl_2_1"/>
    </person>
    <person id="pedestrian10" depart="298.00">
        <walk edges="MalSt_2_1 BynPl_1_1"/>
    </person>
    <person id="pedestrian11" depart="341.00">
        <walk edges="MalSt_2_1 TorPl_1_1"/>
    </person>
    <person id="pedestrian12" depart="416.00">
        <walk edges="MalSt_1_1 MalPl_2_1"/>
    </person>
    <person id="pedestrian13" depart="424.00">
        <walk edges="MalPl_2_1 MalSt_2_1"/>
    </person>
    <person id="pedestrian14" depart="548.00">
        <walk edges="BynPl_1_1 MalSt_1_1"/>
    </person>
    <person id="pedestrian15" depart="571.00">
        <walk edges="TorPl_1_1 MalPl_2_1"/>
    </person>
    <person id="pedestrian16" depart="670.00">
        <walk edges="MalSt_1_1 MalSt_2_1"/>
    </person>
    <person id="pedestrian17" depart="676.00">
        <walk edges="MalPl_1_1 TorPl_2_1"/>
    </person>
    <person id="pedestrian18" depart="735.00">
        <walk edges="BynPl_2_1 TorPl_1_1"/>
    </person>
    <person id="pedestrian19" depart="746.00">
        <walk edges="BynPl_1_1"/>
    </person>
    <person id="pedestrian20" depart="808.00">
        <walk edges="MalPl_1_1 BynPl_1_1"/>
    </person>
    <person id="pedestrian21" depart="830.00">
        <walk edges="MalPl_2_1 BynPl_2_1"/>
    </person>
    <person id="pedestrian22" depart="843.00">
        <walk edges="BynPl_1_1 MalSt_1_1"/>
    </person>
    <person id="pedestrian23" depart="864.00">
        <walk edges="MalSt_2_1 MalPl_1_1"/>
    </person>
    <person id="pedestrian24" depart="889.00">
        <walk edges="BynPl_2_1 MalPl_1_1"/>
    </person>
    <person id="pedestrian25" depart="893.00">
        <walk edges="BynPl_1_1 MalSt_2_1"/>
    </person>
    <person id="pedestrian26" depart="941.00">
        <walk edges="BynPl_1_1"/>
    </person>
    <person id="pedestrian27" depart="967.00">
        <walk edges="MalPl_1_1 TorPl_2_1"/>
    </person>
    <person id="pedestrian28" depart="970.00">
        <walk edges="MalPl_2_1 MalSt_1_1"/>
    </person>
    <person id="pedestrian29" depart="1005.00">
        <walk edges="BynPl_1_1 MalSt_2_1"/>
    </person>
    <person id="pedestrian30" depart="1049.00">
        <walk edges="TorPl_2_1 MalPl_1_1"/>
    </person>
    <person id="pedestrian31" depart="1055.00">
        <walk edges="BynPl_2_1 TorPl_2_1"/>
    </person>
    <person id="pedestrian32" depart="1091.00">
        <walk edges="MalSt_2_1 MalPl_2_1"/>
    </person>
    <person id="pedestrian33" depart="1108.00">
        <walk edges="MalPl_2_1"/>
    </person>
    <person id="pedestrian34" depart="1120.00">
        <walk edges="TorPl_2_1 MalPl_2_1"/>
    </person>
    <person id="pedestrian35" depart="1181.00">
        <walk edges="BynPl_1_1 TorPl_2_1"/>
    </person>
    <person id="pedestrian36" depart="1192.00">
        <walk edges="MalPl_2_1 TorPl_1_1"/>
    </person>
    <person id="pedestrian37" depart="1192.00">
        <walk edges="TorPl_1_1 MalSt_2_1"/>
    </person>
    <person id="pedestrian38" depart="1192.00">
        <walk edges="TorPl_2_1 BynPl_2_1"/>
    </person>
    <person id="pedestrian39" depart="1250.00">
        <walk edges="TorPl_1_1 MalPl_1_1"/>
    </person>
    <person id="pedestrian40" depart="1269.00">
        <walk edges="MalSt_2_1 MalPl_1_1"/>
    </person>
    <person id="pedestrian41" depart="1295.00">
        <walk edges="MalPl_1_1 TorPl_2_1"/>
    </person>
    <person id="pedestrian42" depart="1308.00">
        <walk edges="TorPl_1_1 MalPl_2_1"/>
    </person>
    <person id="pedestrian43" depart="1321.00">
        <walk edges="BynPl_1_1 MalSt_2_1"/>
    </person>
    <person id="pedestrian44" depart="1339.00">
        <walk edges="MalPl_1_1 MalPl_2_1"/>
    </person>
    <person id="pedestrian45" depart="1371.00">
        <walk edges="MalSt_2_1 MalSt_1_1"/>
    </person>
    <person id="pedestrian46" depart="1425.00">
        <walk edges="TorPl_1_1 MalPl_1_1"/>
    </person>
    <person id="pedestrian47" depart="1475.00">
        <walk edges="MalSt_2_1 MalSt_1_1"/>
    </person>
    <person id="pedestrian48" depart="1488.00">
        <walk edges="BynPl_1_1 TorPl_2_1"/>
    </person>
    <person id="pedestrian49" depart="1528.00">
        <walk edges="MalPl_2_1 MalSt_1_1"/>
    </person>
    <person id="pedestrian50" depart="1596.00">
        <walk edges="MalPl_2_1 TorPl_2_1"/>
    </person>
    <person id="pedestrian51" depart="1598.00">
        <walk edges="MalPl_2_1 TorPl_2_1"/>
    </person>
    <person id="pedestrian52" depart="1645.00">
        <walk edges="TorPl_1_1 MalSt_1_1"/>
    </person>
    <person id="pedestrian53" depart="1664.00">
        <walk edges="MalPl_2_1 BynPl_1_1"/>
    </person>
    <person id="pedestrian54" depart="1722.00">
        <walk edges="BynPl_2_1 MalPl_2_1"/>
    </person>
    <person id="pedestrian55" depart="1734.00">
        <walk edges="MalSt_2_1 MalPl_2_1"/>
    </person>
    <person id="pedestrian56" depart="1768.00">
        <walk edges="TorPl_1_1"/>
    </person>
    <person id="pedestrian57" depart="1782.00">
        <walk edges="MalSt_1_1 MalPl_2_1"/>
    </person>
    <person id="pedestrian58" depart="1786.00">
        <walk edges="MalPl_2_1 TorPl_2_1"/>
    </person>
    <person id="pedestrian59" depart="1799.00">
        <walk edges="BynPl_2_1 MalPl_1_1"/>
    </person>
    <person id="pedestrian60" depart="1856.00">
        <walk edges="MalPl_1_1 TorPl_1_1"/>
    </person>
    <person id="pedestrian61" depart="1859.00">
        <walk edges="TorPl_2_1 BynPl_1_1"/>
    </person>
    <person id="pedestrian62" depart="1886.00">
        <walk edges="MalPl_2_1 TorPl_2_1"/>
    </person>
    <person id="pedestrian63" depart="1935.00">
        <walk edges="MalSt_1_1"/>
    </person>
    <person id="pedestrian64" depart="2103.00">
        <walk edges="BynPl_1_1 TorPl_1_1"/>
    </person>
    <person id="pedestrian65" depart="2120.00">
        <walk edges="BynPl_2_1 MalSt_2_1"/>
    </person>
    <person id="pedestrian66" depart="2123.00">
        <walk edges="TorPl_1_1 BynPl_1_1"/>
    </person>
    <person id="pedestrian67" depart="2196.00">
        <walk edges="BynPl_1_1 BynPl_2_1"/>
    </person>
    <person id="pedestrian68" depart="2201.00">
        <walk edges="TorPl_2_1 MalSt_1_1"/>
    </person>
    <person id="pedestrian69" depart="2241.00">
        <walk edges="MalSt_1_1 BynPl_1_1"/>
    </person>
    <person id="pedestrian70" depart="2257.00">
        <walk edges="MalPl_1_1 MalSt_2_1"/>
    </person>
    <person id="pedestrian71" depart="2307.00">
        <walk edges="TorPl_1_1"/>
    </person>
    <person id="pedestrian72" depart="2316.00">
        <walk edges="MalSt_2_1"/>
    </person>
    <person id="pedestrian73" depart="2327.00">
        <walk edges="TorPl_1_1 BynPl_2_1"/>
    </person>
    <person id="pedestrian74" depart="2393.00">
        <walk edges="BynPl_1_1 TorPl_1_1"/>
    </person>
    <person id="pedestrian75" depart="2402.00">
        <walk edges="MalPl_1_1 MalSt_1_1"/>
    </person>
    <person id="pedestrian76" depart="2486.00">
        <walk edges="MalPl_2_1 MalSt_2_1"/>
    </person>
    <person id="pedestrian77" depart="2493.00">
        <walk edges="MalSt_2_1 MalSt_1_1"/>
    </person>
    <person id="pedestrian78" depart="2522.00">
        <walk edges="BynPl_1_1 TorPl_2_1"/>
    </person>
    <person id="pedestrian79" depart="2550.00">
        <walk edges="BynPl_2_1 TorPl_2_1"/>
    </person>
    <person id="pedestrian80" depart="2568.00">
        <walk edges="MalSt_1_1 MalPl_2_1"/>
    </person>
    <person id="pedestrian81" depart="2586.00">
        <walk edges="BynPl_2_1 TorPl_1_1"/>
    </person>
    <person id="pedestrian82" depart="2605.00">
        <walk edges="BynPl_2_1"/>
    </person>
    <person id="pedestrian83" depart="2651.00">
        <walk edges="TorPl_2_1 TorPl_1_1"/>
    </person>
    <person id="pedestrian84" depart="2652.00">
        <walk edges="TorPl_1_1"/>
    </person>
    <person id="pedestrian85" depart="2736.00">
        <walk edges="MalPl_2_1 BynPl_1_1"/>
    </person>
    <person id="pedestrian86" depart="2807.00">
        <walk edges="BynPl_2_1"/>
    </person>
    <person id="pedestrian87" depart="2808.00">
        <walk edges="TorPl_1_1 MalPl_1_1"/>
    </person>
    <person id="pedestrian88" depart="2890.00">
        <walk edges="MalSt_2_1"/>
    </person>
    <person id="pedestrian89" depart="2897.00">
        <walk edges="MalSt_2_1 TorPl_2_1"/>
    </person>
    <person id="pedestrian90" depart="2915.00">
        <walk edges="MalSt_2_1 TorPl_1_1"/>
    </person>
    <person id="pedestrian91" depart="2948.00">
        <walk edges="BynPl_1_1 MalSt_1_1"/>
    </person>
    <person id="pedestrian92" depart="2974.00">
        <walk edges="BynPl_1_1 MalSt_2_1"/>
    </person>
    <person id="pedestrian93" depart="2978.00">
        <walk edges="TorPl_2_1 BynPl_1_1"/>
    </person>
    <person id="pedestrian94" depart="3000.00">
        <walk edges="MalPl_1_1 TorPl_1_1"/>
    </person>
    <person id="pedestrian95" depart="3003.00">
        <walk edges="TorPl_1_1 TorPl_2_1"/>
    </person>
    <person id="pedestrian96" depart="3035.00">
        <walk edges="BynPl_2_1 TorPl_1_1"/>
    </person>
    <person id="pedestrian97" depart="3062.00">
        <walk edges="MalPl_2_1 BynPl_2_1"/>
    </person>
    <person id="pedestrian98" depart="3095.00">
        <walk edges="MalPl_1_1"/>
    </person>
    <person id="pedestrian99" depart="3100.00">
        <walk edges="MalPl_1_1 TorPl_1_1"/>
    </person>
    <person id="pedestrian100" depart="3105.00">
        <walk edges="BynPl_2_1 BynPl_1_1"/>
    </person>
    <person id="pedestrian101" depart="3112.00">
        <walk edges="TorPl_2_1 MalPl_2_1"/>
    </person>
    <person id="pedestrian102" depart="3148.00">
        <walk edges="BynPl_1_1 BynPl_2_1"/>
    </person>
    <person id="pedestrian103" depart="3185.00">
        <walk edges="BynPl_2_1 MalSt_1_1"/>
    </person>
    <person id="pedestrian104" depart="3210.00">
        <walk edges="BynPl_1_1 TorPl_2_1"/>
    </person>
    <person id="pedestrian105" depart="3258.00">
        <walk edges="MalPl_1_1 MalSt_2_1"/>
    </person>
    <person id="pedestrian106" depart="3367.00">
        <walk edges="MalSt_1_1 BynPl_2_1"/>
    </person>
    <person id="pedestrian107" depart="3370.00">
        <walk edges="MalPl_2_1 MalSt_2_1"/>
    </person>
    <person id="pedestrian108" depart="3408.00">
        <walk edges="MalPl_2_1 BynPl_1_1"/>
    </person>
    <person id="pedestrian109" depart="3423.00">
        <walk edges="BynPl_2_1 MalSt_1_1"/>
    </person>
    <person id="pedestrian110" depart="3508.00">
        <walk edges="BynPl_1_1 MalPl_1_1"/>
    </person>
    <person id="pedestrian111" depart="3530.00">
        <walk edges="TorPl_2_1 TorPl_1_1"/>
    </person>
    <person id="pedestrian112" depart="3570.00">
        <walk edges="MalPl_1_1 BynPl_2_1"/>
    </person>
</routes>
