<?xml version="1.0" encoding="UTF-8"?>

<!-- generated on 2025-12-27 10:43:03.414623 by Eclipse SUMO randomTrips.py UNKNOWN
<configuration>
    <net-file value="../networks/crossing/main.net.xml"/>
    <output-trip-file value="../routes/crossing/train/4/pedestrian.trips.xml"/>
    <route-file value="../routes/crossing/train/4/pedestrian.rou.xml"/>
    <pedestrians value="True"/>
    <prefix value="pedestrian"/>
    <seed value="4"/>
    <insertion-density value="200.0"/>
    <binomial value="100"/>
</configuration>
-->

<!-- generated on 2025-12-27T10:43:03.411125+00:00 by Eclipse SUMO duarouter 1.25.0
<duarouterConfiguration xmlns:xsi="http://www.w3.org/2001/XMLSchema-instance" xsi:noNamespaceSchemaLocation="http://sumo.dlr.de/xsd/duarouterConfiguration.xsd">

    <input>
        <net-file value="../networks/crossing/main.net.xml"/>
        <route-files value="../routes/crossing/train/4/pedestrian.trips.xml"/>
    </input>

    <output>
        <output-file value="../routes/crossing/train/4/pedestrian.rou.xml"/>
        <alternatives-output value="NUL"/>
    </output>

    <time>
        <begin value="0"/>
        <end value="3600.0"/>
    </time>

    <report>
        <no-warnings value="true"/>
        <ignore-errors value="true"/>
        <no-step-log value="true"/>
    </report>

</duarouterConfiguration>
-->

<routes xmlns:xsi="http://www.w3.org/2001/XMLSchema-instance" xsi:noNamespaceSchemaLocation="http://sumo.dlr.de/xsd/routes_file.xsd">
    <person id="pedestrian0" depart="42.00">
        <walk edges="TorPl_2_1 MalPl_2_1"/>
    </person>
    <person id="pedestrian1" depart="63.00">
        <walk edges="BynPl_2_3 TorPl_1_4"/>
    </person>
    <person id="pedestrian2" depart="63.00">
        <walk edges="MalPl_1_1 BynPl_2_3"/>
    </person>
    <person id="pedestrian3" depart="81.00">
        <walk edges="MalPl_1_1 BynPl_1_1"/>
    </person>
    <person id="pedestrian4" depart="84.00">
        <walk edges="MalSt_2_1 MalSt_1_1"/>
    </person>
    <person id="pedestrian5" depart="89.00">
        <walk edges="BynPl_2_3 MalPl_2_1"/>
    </person>
    <person id="pedestrian6" depart="104.00">
        <walk edges="TorPl_2_1 MalPl_1_1"/>
    </person>
    <person id="pedestrian7" depart="118.00">
        <walk edges="TorPl_2_1 MalSt_2_1"/>
    </person>
    <person id="pedestrian8" depart="129.00">
        <walk edges="TorPl_1_4 TorPl_2_1"/>
    </person>
    <person id="pedestrian9" depart="133.00">
        <walk edges="MalPl_1_1 TorPl_2_1"/>
    </person>
    <person id="pedestrian10" depart="211.00">
        <walk edges="BynPl_2_3 MalPl_1_1"/>
    </person>
    <person id="pedestrian11" depart="313.00">
        <walk edges="MalPl_2_1 MalSt_2_1"/>
    </person>
    <person id="pedestrian12" depart="320.00">
        <walk edges="MalPl_2_1"/>
    </person>
    <person id="pedestrian13" depart="336.00">
        <walk edges="MalSt_1_1 TorPl_2_1"/>
    </person>
    <person id="pedestrian14" depart="346.00">
        <walk edges="MalPl_1_1 MalSt_2_1"/>
    </person>
    <person id="pedestrian15" depart="397.00">
        <walk edges="MalSt_2_1 MalSt_1_1"/>
    </person>
    <person id="pedestrian16" depart="426.00">
        <walk edges="MalPl_2_1 MalSt_1_1"/>
    </person>
    <person id="pedestrian17" depart="446.00">
        <walk edges="BynPl_1_1 MalPl_2_1"/>
    </person>
    <person id="pedestrian18" depart="472.00">
        <walk edges="BynPl_1_1 TorPl_1_4"/>
    </person>
    <person id="pedestrian19" depart="525.00">
        <walk edges="TorPl_1_4 MalPl_2_1"/>
    </person>
    <person id="pedestrian20" depart="588.00">
        <walk edges="TorPl_1_4 TorPl_2_1"/>
    </person>
    <person id="pedestrian21" depart="624.00">
        <walk edges="TorPl_1_4 MalPl_2_1"/>
    </person>
    <person id="pedestrian22" depart="715.00">
        <walk edges="TorPl_1_4 MalPl_2_1"/>
    </person>
    <person id="pedestrian23" depart="790.00">
        <walk edges="TorPl_1_4 MalPl_2_1"/>
    </person>
    <person id="pedestrian24" depart="856.00">
        <walk edges="TorPl_2_1 MalPl_2_1"/>
    </person>
    <person id="pedestrian25" depart="859.00">
        <walk edges="BynPl_1_1 BynPl_2_3"/>
    </person>
    <person id="pedestrian26" depart="874.00">
        <walk edges="MalPl_1_1 BynPl_1_1"/>
    </person>
    <person id="pedestrian27" depart="918.00">
        <walk edges="MalPl_2_1 MalSt_1_1"/>
    </person>
    <person id="pedestrian28" depart="943.00">
        <walk edges="BynPl_1_1 MalPl_1_1"/>
    </person>
    <person id="pedestrian29" depart="984.00">
        <walk edges="BynPl_1_1 MalPl_2_1"/>
    </person>
    <person id="pedestrian30" depart="985.00">
        <walk edges="MalSt_2_1 TorPl_2_1"/>
    </person>
    <person id="pedestrian31" depart="1090.00">
        <walk edges="TorPl_1_4 BynPl_1_1"/>
    </person>
    <person id="pedestrian32" depart="1110.00">
        <walk edges="BynPl_1_1 BynPl_2_3"/>
    </person>
    <person id="pedestrian33" depart="1226.00">
        <walk edges="MalSt_2_1 TorPl_1_4"/>
    </person>
    <person id="pedestrian34" depart="1349.00">
        <walk edges="TorPl_2_1 BynPl_1_1"/>
    </person>
    <person id="pedestrian35" depart="1396.00">
        <walk edges="MalSt_1_1"/>
    </person>
    <person id="pedestrian36" depart="1420.00">
        <walk edges="TorPl_2_1 MalPl_2_1"/>
    </person>
    <person id="pedestrian37" depart="1433.00">
        <walk edges="TorPl_2_1 MalPl_2_1"/>
    </person>
    <person id="pedestrian38" depart="1472.00">
        <walk edges="MalPl_1_1"/>
    </person>
    <person id="pedestrian39" depart="1506.00">
        <walk edges="MalSt_2_1 BynPl_2_3"/>
    </person>
    <person id="pedestrian40" depart="1532.00">
        <walk edges="TorPl_1_4"/>
    </person>
    <person id="pedestrian41" depart="1564.00">
        <walk edges="MalPl_2_1 TorPl_2_1"/>
    </person>
    <person id="pedestrian42" depart="1619.00">
        <walk edges="MalSt_1_1 MalSt_2_1"/>
    </person>
    <person id="pedestrian43" depart="1640.00">
        <walk edges="MalPl_1_1 MalSt_2_1"/>
    </person>
    <person id="pedestrian44" depart="1680.00">
        <walk edges="TorPl_2_1 MalPl_2_1"/>
    </person>
    <person id="pedestrian45" depart="1683.00">
        <walk edges="MalSt_2_1 TorPl_1_4"/>
    </person>
    <person id="pedestrian46" depart="1773.00">
        <walk edges="BynPl_1_1"/>
    </person>
    <person id="pedestrian47" depart="1825.00">
        <walk edges="MalPl_2_1 BynPl_2_3"/>
    </person>
    <person id="pedestrian48" depart="1882.00">
        <walk edges="TorPl_1_4 BynPl_2_3"/>
    </person>
    <person id="pedestrian49" depart="1916.00">
        <walk edges="BynPl_2_3 BynPl_1_1"/>
    </person>
    <person id="pedestrian50" depart="1930.00">
        <walk edges="TorPl_1_4 MalPl_2_1"/>
    </person>
    <person id="pedestrian51" depart="2001.00">
        <walk edges="MalSt_1_1"/>
    </person>
    <person id="pedestrian52" depart="2086.00">
        <walk edges="MalPl_1_1 MalPl_2_1"/>
    </person>
    <person id="pedestrian53" depart="2102.00">
        <walk edges="BynPl_2_3 MalPl_1_1"/>
    </person>
    <person id="pedestrian54" depart="2120.00">
        <walk edges="TorPl_2_1 MalSt_1_1"/>
    </person>
    <person id="pedestrian55" depart="2123.00">
        <walk edges="TorPl_2_1 MalPl_2_1"/>
    </person>
    <person id="pedestrian56" depart="2140.00">
        <walk edges="TorPl_2_1 BynPl_2_3"/>
    </person>
    <person id="pedestrian57" depart="2154.00">
        <walk edges="TorPl_2_1 MalPl_2_1"/>
    </person>
    <person id="pedestrian58" depart="2182.00">
        <walk edges="MalSt_2_1 MalPl_1_1"/>
    </person>
    <person id="pedestrian59" depart="2187.00">
        <walk edges="BynPl_1_1 TorPl_2_1"/>
    </person>
    <person id="pedestrian60" depart="2187.00">
        <walk edges="TorPl_1_4"/>
    </person>
    <person id="pedestrian61" depart="2263.00">
        <walk edges="TorPl_1_4"/>
    </person>
    <person id="pedestrian62" depart="2278.00">
        <walk edges="MalSt_2_1 MalPl_1_1"/>
    </person>
    <person id="pedestrian63" depart="2349.00">
        <walk edges="MalPl_2_1 MalPl_1_1"/>
    </person>
    <person id="pedestrian64" depart="2364.00">
        <walk edges="TorPl_1_4 MalSt_1_1"/>
    </person>
    <person id="pedestrian65" depart="2404.00">
        <walk edges="TorPl_1_4 MalPl_2_1"/>
    </person>
    <person id="pedestrian66" depart="2435.00">
        <walk edges="TorPl_1_4 BynPl_2_3"/>
    </person>
    <person id="pedestrian67" depart="2448.00">
        <walk edges="BynPl_1_1 BynPl_2_3"/>
    </person>
    <person id="pedestrian68" depart="2501.00">
        <walk edges="MalSt_2_1 MalPl_2_1"/>
    </person>
    <person id="pedestrian69" depart="2510.00">
        <walk edges="MalPl_2_1 TorPl_1_4"/>
    </person>
    <person id="pedestrian70" depart="2596.00">
        <walk edges="MalPl_1_1 TorPl_2_1"/>
    </person>
    <person id="pedestrian71" depart="2609.00">
        <walk edges="MalPl_2_1 BynPl_1_1"/>
    </person>
    <person id="pedestrian72" depart="2687.00">
        <walk edges="MalSt_1_1"/>
    </person>
    <person id="pedestrian73" depart="2795.00">
        <walk edges="BynPl_1_1 MalSt_2_1"/>
    </person>
    <person id="pedestrian74" depart="2844.00">
        <walk edges="MalSt_2_1 MalSt_1_1"/>
    </person>
    <person id="pedestrian75" depart="2888.00">
        <walk edges="MalPl_2_1 MalSt_2_1"/>
    </person>
    <person id="pedestrian76" depart="2937.00">
        <walk edges="MalPl_1_1"/>
    </person>
    <person id="pedestrian77" depart="2964.00">
        <walk edges="BynPl_1_1 MalPl_2_1"/>
    </person>
    <person id="pedestrian78" depart="3018.00">
        <walk edges="MalPl_1_1 MalSt_2_1"/>
    </person>
    <person id="pedestrian79" depart="3074.00">
        <walk edges="MalSt_1_1 MalSt_2_1"/>
    </person>
    <person id="pedestrian80" depart="3107.00">
        <walk edges="TorPl_2_1 BynPl_1_1"/>
    </person>
    <person id="pedestrian81" depart="3136.00">
        <walk edges="TorPl_2_1 TorPl_1_4"/>
    </person>
    <person id="pedestrian82" depart="3167.00">
        <walk edges="TorPl_1_4 TorPl_2_1"/>
    </person>
    <person id="pedestrian83" depart="3192.00">
        <walk edges="TorPl_1_4 MalSt_2_1"/>
    </person>
    <person id="pedestrian84" depart="3252.00">
        <walk edges="BynPl_1_1 TorPl_2_1"/>
    </person>
    <person id="pedestrian85" depart="3259.00">
        <walk edges="BynPl_1_1 MalSt_1_1"/>
    </person>
    <person id="pedestrian86" depart="3387.00">
        <walk edges="MalSt_1_1 TorPl_1_4"/>
    </person>
    <person id="pedestrian87" depart="3421.00">
        <walk edges="BynPl_2_3 BynPl_1_1"/>
    </person>
    <person id="pedestrian88" depart="3457.00">
        <walk edges="TorPl_1_4 TorPl_2_1"/>
    </person>
    <person id="pedestrian89" depart="3488.00">
        <walk edges="MalSt_1_1"/>
    </person>
    <person id="pedestrian90" depart="3535.00">
        <walk edges="MalSt_1_1 MalSt_2_1"/>
    </person>
    <person id="pedestrian91" depart="3572.00">
        <walk edges="TorPl_2_1 BynPl_2_3"/>
    </person>
</routes>
