<?xml version="1.0" encoding="UTF-8"?>

<!-- generated on 2025-12-26 14:03:22.384335 by Eclipse SUMO randomTrips.py UNKNOWN
<configuration>
    <net-file value="../networks/crossing/main.net.xml"/>
    <output-trip-file value="../routes/crossing/train/1000/pedestrian.trips.xml"/>
    <route-file value="../routes/crossing/train/1000/pedestrian.rou.xml"/>
    <pedestrians value="True"/>
    <prefix value="pedestrian"/>
    <seed value="1000"/>
    <period value="5.0"/>
    <binomial value="100"/>
</configuration>
-->

<!-- generated on 2025-12-26T14:03:22.375749+00:00 by Eclipse SUMO duarouter 1.25.0
<duarouterConfiguration xmlns:xsi="http://www.w3.org/2001/XMLSchema-instance" xsi:noNamespaceSchemaLocation="http://sumo.dlr.de/xsd/duarouterConfiguration.xsd">

    <input>
        <net-file value="../networks/crossing/main.net.xml"/>
        <route-files value="../routes/crossing/train/1000/pedestrian.trips.xml"/>
    </input>

    <output>
        <output-file value="../routes/crossing/train/1000/pedestrian.rou.xml"/>
        <alternatives-output value="NUL"/>
    </output>

    <time>
        <begin value="0"/>
        <end value="3600.0"/>
    </time>

    <report>
        <no-warnings value="true"/>
        <ignore-errors value="true"/>
        <no-step-log value="true"/>
    </report>

</duarouterConfiguration>
-->

<routes xmlns:xsi="http://www.w3.org/2001/XMLSchema-instance" xsi:noNamespaceSchemaLocation="http://sumo.dlr.de/xsd/routes_file.xsd">
    <person id="pedestrian0" depart="14.00">
        <walk edges="MalSt_2_1 TorPl_2_1"/>
    </person>
    <person id="pedestrian1" depart="16.00">
        <walk edges="BynPl_2_3 TorPl_2_1"/>
    </person>
    <person id="pedestrian2" depart="21.00">
        <walk edges="MalPl_2_1 MalPl_1_1"/>
    </person>
    <person id="pedestrian3" depart="21.00">
        <walk edges="MalPl_1_1 MalPl_2_1"/>
    </person>
    <person id="pedestrian4" depart="21.00">
        <walk edges="MalPl_1_1 TorPl_2_1"/>
    </person>
    <person id="pedestrian5" depart="28.00">
        <walk edges="BynPl_1_1 BynPl_2_3"/>
    </person>
    <person id="pedestrian6" depart="29.00">
        <walk edges="MalSt_1_1 BynPl_2_3"/>
    </person>
    <person id="pedestrian7" depart="31.00">
        <walk edges="MalPl_1_1 BynPl_2_3"/>
    </person>
    <person id="pedestrian8" depart="36.00">
        <walk edges="BynPl_1_1 MalSt_1_1"/>
    </person>
    <person id="pedestrian9" depart="39.00">
        <walk edges="MalPl_1_1 MalPl_2_1"/>
    </person>
    <person id="pedestrian10" depart="57.00">
        <walk edges="TorPl_1_4 MalSt_2_1"/>
    </person>
    <person id="pedestrian11" depart="58.00">
        <walk edges="TorPl_2_1 MalSt_1_1"/>
    </person>
    <person id="pedestrian12" depart="62.00">
        <walk edges="MalPl_1_1 BynPl_1_1"/>
    </person>
    <person id="pedestrian13" depart="62.00">
        <walk edges="TorPl_1_4"/>
    </person>
    <person id="pedestrian14" depart="64.00">
        <walk edges="BynPl_1_1 TorPl_1_4"/>
    </person>
    <person id="pedestrian15" depart="68.00">
        <walk edges="TorPl_2_1 MalPl_1_1"/>
    </person>
    <person id="pedestrian16" depart="74.00">
        <walk edges="MalSt_2_1 TorPl_2_1"/>
    </person>
    <person id="pedestrian17" depart="78.00">
        <walk edges="BynPl_1_1 MalSt_1_1"/>
    </person>
    <person id="pedestrian18" depart="87.00">
        <walk edges="BynPl_1_1 TorPl_2_1"/>
    </person>
    <person id="pedestrian19" depart="95.00">
        <walk edges="TorPl_2_1 BynPl_1_1"/>
    </person>
    <person id="pedestrian20" depart="109.00">
        <walk edges="TorPl_2_1 MalSt_1_1"/>
    </person>
    <person id="pedestrian21" depart="113.00">
        <walk edges="BynPl_2_3"/>
    </person>
    <person id="pedestrian22" depart="118.00">
        <walk edges="BynPl_1_1 TorPl_1_4"/>
    </person>
    <person id="pedestrian23" depart="125.00">
        <walk edges="BynPl_1_1"/>
    </person>
    <person id="pedestrian24" depart="129.00">
        <walk edges="MalPl_1_1 BynPl_2_3"/>
    </person>
    <person id="pedestrian25" depart="130.00">
        <walk edges="MalPl_1_1 TorPl_1_4"/>
    </person>
    <person id="pedestrian26" depart="131.00">
        <walk edges="BynPl_1_1 TorPl_2_1"/>
    </person>
    <person id="pedestrian27" depart="148.00">
        <walk edges="BynPl_2_3 MalPl_2_1"/>
    </person>
    <person id="pedestrian28" depart="154.00">
        <walk edges="MalPl_1_1 BynPl_2_3"/>
    </person>
    <person id="pedestrian29" depart="160.00">
        <walk edges="TorPl_2_1 BynPl_1_1"/>
    </person>
    <person id="pedestrian30" depart="161.00">
        <walk edges="BynPl_2_3 TorPl_2_1"/>
    </person>
    <person id="pedestrian31" depart="166.00">
        <walk edges="MalPl_1_1 BynPl_2_3"/>
    </person>
    <person id="pedestrian32" depart="176.00">
        <walk edges="TorPl_2_1 MalPl_2_1"/>
    </person>
    <person id="pedestrian33" depart="176.00">
        <walk edges="BynPl_1_1 TorPl_1_4"/>
    </person>
    <person id="pedestrian34" depart="189.00">
        <walk edges="TorPl_2_1 MalSt_2_1"/>
    </person>
    <person id="pedestrian35" depart="191.00">
        <walk edges="TorPl_1_4 BynPl_1_1"/>
    </person>
    <person id="pedestrian36" depart="192.00">
        <walk edges="MalSt_1_1 MalPl_2_1"/>
    </person>
    <person id="pedestrian37" depart="192.00">
        <walk edges="MalPl_2_1 BynPl_2_3"/>
    </person>
    <person id="pedestrian38" depart="200.00">
        <walk edges="MalPl_2_1 MalSt_1_1"/>
    </person>
    <person id="pedestrian39" depart="204.00">
        <walk edges="MalSt_2_1 TorPl_1_4"/>
    </person>
    <person id="pedestrian40" depart="208.00">
        <walk edges="MalSt_2_1 MalSt_1_1"/>
    </person>
    <person id="pedestrian41" depart="208.00">
        <walk edges="TorPl_1_4"/>
    </person>
    <person id="pedestrian42" depart="216.00">
        <walk edges="TorPl_1_4 MalSt_2_1"/>
    </person>
    <person id="pedestrian43" depart="223.00">
        <walk edges="MalSt_2_1 MalPl_1_1"/>
    </person>
    <person id="pedestrian44" depart="223.00">
        <walk edges="TorPl_2_1 MalPl_1_1"/>
    </person>
    <person id="pedestrian45" depart="223.00">
        <walk edges="TorPl_2_1 MalSt_1_1"/>
    </person>
    <person id="pedestrian46" depart="233.00">
        <walk edges="BynPl_1_1 TorPl_1_4"/>
    </person>
    <person id="pedestrian47" depart="250.00">
        <walk edges="MalPl_1_1 MalSt_2_1"/>
    </person>
    <person id="pedestrian48" depart="266.00">
        <walk edges="MalSt_2_1"/>
    </person>
    <person id="pedestrian49" depart="268.00">
        <walk edges="TorPl_1_4 TorPl_2_1"/>
    </person>
    <person id="pedestrian50" depart="277.00">
        <walk edges="TorPl_1_4 MalSt_1_1"/>
    </person>
    <person id="pedestrian51" depart="288.00">
        <walk edges="MalSt_2_1 MalPl_2_1"/>
    </person>
    <person id="pedestrian52" depart="291.00">
        <walk edges="MalSt_1_1 BynPl_2_3"/>
    </person>
    <person id="pedestrian53" depart="297.00">
        <walk edges="BynPl_2_3 MalPl_2_1"/>
    </person>
    <person id="pedestrian54" depart="300.00">
        <walk edges="BynPl_1_1 MalPl_1_1"/>
    </person>
    <person id="pedestrian55" depart="303.00">
        <walk edges="MalSt_1_1 TorPl_2_1"/>
    </person>
    <person id="pedestrian56" depart="307.00">
        <walk edges="MalPl_1_1 MalPl_2_1"/>
    </person>
    <person id="pedestrian57" depart="309.00">
        <walk edges="BynPl_1_1 BynPl_2_3"/>
    </person>
    <person id="pedestrian58" depart="311.00">
        <walk edges="MalPl_2_1 BynPl_2_3"/>
    </person>
    <person id="pedestrian59" depart="315.00">
        <walk edges="MalSt_2_1 BynPl_2_3"/>
    </person>
    <person id="pedestrian60" depart="321.00">
        <walk edges="MalSt_2_1 MalSt_1_1"/>
    </person>
    <person id="pedestrian61" depart="324.00">
        <walk edges="BynPl_2_3 MalSt_1_1"/>
    </person>
    <person id="pedestrian62" depart="325.00">
        <walk edges="MalSt_2_1 TorPl_2_1"/>
    </person>
    <person id="pedestrian63" depart="329.00">
        <walk edges="MalPl_1_1 MalSt_1_1"/>
    </person>
    <person id="pedestrian64" depart="332.00">
        <walk edges="TorPl_2_1"/>
    </person>
    <person id="pedestrian65" depart="335.00">
        <walk edges="MalSt_1_1 TorPl_1_4"/>
    </person>
    <person id="pedestrian66" depart="336.00">
        <walk edges="BynPl_2_3 BynPl_1_1"/>
    </person>
    <person id="pedestrian67" depart="343.00">
        <walk edges="TorPl_2_1 TorPl_1_4"/>
    </person>
    <person id="pedestrian68" depart="345.00">
        <walk edges="MalPl_2_1"/>
    </person>
    <person id="pedestrian69" depart="356.00">
        <walk edges="MalSt_2_1"/>
    </person>
    <person id="pedestrian70" depart="357.00">
        <walk edges="TorPl_2_1 MalSt_1_1"/>
    </person>
    <person id="pedestrian71" depart="363.00">
        <walk edges="BynPl_2_3 MalSt_2_1"/>
    </person>
    <person id="pedestrian72" depart="379.00">
        <walk edges="MalPl_2_1 TorPl_1_4"/>
    </person>
    <person id="pedestrian73" depart="383.00">
        <walk edges="MalSt_1_1 MalSt_2_1"/>
    </person>
    <person id="pedestrian74" depart="383.00">
        <walk edges="TorPl_2_1 BynPl_1_1"/>
    </person>
    <person id="pedestrian75" depart="389.00">
        <walk edges="MalSt_2_1 TorPl_1_4"/>
    </person>
    <person id="pedestrian76" depart="390.00">
        <walk edges="BynPl_2_3 TorPl_1_4"/>
    </person>
    <person id="pedestrian77" depart="391.00">
        <walk edges="MalPl_2_1 BynPl_1_1"/>
    </person>
    <person id="pedestrian78" depart="391.00">
        <walk edges="BynPl_1_1 MalPl_1_1"/>
    </person>
    <person id="pedestrian79" depart="394.00">
        <walk edges="BynPl_1_1 TorPl_1_4"/>
    </person>
    <person id="pedestrian80" depart="395.00">
        <walk edges="MalSt_1_1 TorPl_1_4"/>
    </person>
    <person id="pedestrian81" depart="396.00">
        <walk edges="BynPl_1_1 MalPl_2_1"/>
    </person>
    <person id="pedestrian82" depart="416.00">
        <walk edges="BynPl_1_1 MalSt_2_1"/>
    </person>
    <person id="pedestrian83" depart="425.00">
        <walk edges="MalSt_2_1 BynPl_1_1"/>
    </person>
    <person id="pedestrian84" depart="426.00">
        <walk edges="BynPl_2_3 TorPl_1_4"/>
    </person>
    <person id="pedestrian85" depart="443.00">
        <walk edges="MalPl_2_1 MalSt_1_1"/>
    </person>
    <person id="pedestrian86" depart="452.00">
        <walk edges="MalSt_2_1 BynPl_1_1"/>
    </person>
    <person id="pedestrian87" depart="452.00">
        <walk edges="TorPl_2_1"/>
    </person>
    <person id="pedestrian88" depart="461.00">
        <walk edges="MalSt_1_1 BynPl_2_3"/>
    </person>
    <person id="pedestrian89" depart="462.00">
        <walk edges="TorPl_1_4 MalPl_2_1"/>
    </person>
    <person id="pedestrian90" depart="496.00">
        <walk edges="MalSt_2_1"/>
    </person>
    <person id="pedestrian91" depart="498.00">
        <walk edges="BynPl_1_1 MalPl_2_1"/>
    </person>
    <person id="pedestrian92" depart="502.00">
        <walk edges="BynPl_1_1 MalPl_1_1"/>
    </person>
    <person id="pedestrian93" depart="511.00">
        <walk edges="MalPl_1_1 TorPl_1_4"/>
    </person>
    <person id="pedestrian94" depart="523.00">
        <walk edges="MalSt_1_1 BynPl_1_1"/>
    </person>
    <person id="pedestrian95" depart="526.00">
        <walk edges="BynPl_1_1 MalSt_1_1"/>
    </person>
    <person id="pedestrian96" depart="534.00">
        <walk edges="TorPl_2_1 MalSt_2_1"/>
    </person>
    <person id="pedestrian97" depart="535.00">
        <walk edges="TorPl_1_4 MalSt_2_1"/>
    </person>
    <person id="pedestrian98" depart="544.00">
        <walk edges="MalPl_1_1 MalSt_2_1"/>
    </person>
    <person id="pedestrian99" depart="546.00">
        <walk edges="TorPl_1_4 BynPl_2_3"/>
    </person>
    <person id="pedestrian100" depart="547.00">
        <walk edges="MalPl_1_1 BynPl_2_3"/>
    </person>
    <person id="pedestrian101" depart="549.00">
        <walk edges="MalSt_1_1 TorPl_1_4"/>
    </person>
    <person id="pedestrian102" depart="549.00">
        <walk edges="MalSt_2_1 MalPl_2_1"/>
    </person>
    <person id="pedestrian103" depart="552.00">
        <walk edges="MalPl_1_1 MalSt_2_1"/>
    </person>
    <person id="pedestrian104" depart="575.00">
        <walk edges="TorPl_2_1 BynPl_2_3"/>
    </person>
    <person id="pedestrian105" depart="576.00">
        <walk edges="MalPl_2_1"/>
    </person>
    <person id="pedestrian106" depart="582.00">
        <walk edges="MalPl_2_1 TorPl_2_1"/>
    </person>
    <person id="pedestrian107" depart="585.00">
        <walk edges="BynPl_1_1 MalSt_2_1"/>
    </person>
    <person id="pedestrian108" depart="587.00">
        <walk edges="TorPl_1_4 MalSt_1_1"/>
    </person>
    <person id="pedestrian109" depart="592.00">
        <walk edges="TorPl_1_4 MalSt_1_1"/>
    </person>
    <person id="pedestrian110" depart="594.00">
        <walk edges="MalSt_1_1 TorPl_2_1"/>
    </person>
    <person id="pedestrian111" depart="596.00">
        <walk edges="BynPl_1_1 MalPl_1_1"/>
    </person>
    <person id="pedestrian112" depart="603.00">
        <walk edges="TorPl_1_4 BynPl_2_3"/>
    </person>
    <person id="pedestrian113" depart="605.00">
        <walk edges="MalSt_1_1 BynPl_1_1"/>
    </person>
    <person id="pedestrian114" depart="607.00">
        <walk edges="TorPl_2_1 MalPl_1_1"/>
    </person>
    <person id="pedestrian115" depart="607.00">
        <walk edges="BynPl_2_3 BynPl_1_1"/>
    </person>
    <person id="pedestrian116" depart="613.00">
        <walk edges="MalSt_1_1 MalPl_2_1"/>
    </person>
    <person id="pedestrian117" depart="618.00">
        <walk edges="TorPl_2_1 MalPl_2_1"/>
    </person>
    <person id="pedestrian118" depart="621.00">
        <walk edges="BynPl_2_3 MalPl_1_1"/>
    </person>
    <person id="pedestrian119" depart="622.00">
        <walk edges="MalSt_2_1 TorPl_1_4"/>
    </person>
    <person id="pedestrian120" depart="623.00">
        <walk edges="MalSt_2_1"/>
    </person>
    <person id="pedestrian121" depart="627.00">
        <walk edges="TorPl_1_4 MalPl_2_1"/>
    </person>
    <person id="pedestrian122" depart="631.00">
        <walk edges="MalSt_2_1 TorPl_2_1"/>
    </person>
    <person id="pedestrian123" depart="631.00">
        <walk edges="MalSt_1_1"/>
    </person>
    <person id="pedestrian124" depart="631.00">
        <walk edges="MalSt_1_1 MalSt_2_1"/>
    </person>
    <person id="pedestrian125" depart="632.00">
        <walk edges="MalSt_2_1 MalPl_1_1"/>
    </person>
    <person id="pedestrian126" depart="639.00">
        <walk edges="BynPl_1_1 MalPl_1_1"/>
    </person>
    <person id="pedestrian127" depart="641.00">
        <walk edges="MalSt_1_1 BynPl_1_1"/>
    </person>
    <person id="pedestrian128" depart="646.00">
        <walk edges="BynPl_1_1 TorPl_1_4"/>
    </person>
    <person id="pedestrian129" depart="647.00">
        <walk edges="TorPl_1_4 MalSt_1_1"/>
    </person>
    <person id="pedestrian130" depart="649.00">
        <walk edges="MalSt_2_1 BynPl_2_3"/>
    </person>
    <person id="pedestrian131" depart="650.00">
        <walk edges="BynPl_1_1 TorPl_1_4"/>
    </person>
    <person id="pedestrian132" depart="650.00">
        <walk edges="MalSt_2_1 MalSt_1_1"/>
    </person>
    <person id="pedestrian133" depart="651.00">
        <walk edges="MalPl_2_1"/>
    </person>
    <person id="pedestrian134" depart="652.00">
        <walk edges="BynPl_1_1 TorPl_2_1"/>
    </person>
    <person id="pedestrian135" depart="658.00">
        <walk edges="MalPl_1_1 MalSt_1_1"/>
    </person>
    <person id="pedestrian136" depart="663.00">
        <walk edges="TorPl_2_1 BynPl_1_1"/>
    </person>
    <person id="pedestrian137" depart="668.00">
        <walk edges="MalPl_1_1 MalSt_1_1"/>
    </person>
    <person id="pedestrian138" depart="680.00">
        <walk edges="MalSt_2_1 TorPl_2_1"/>
    </person>
    <person id="pedestrian139" depart="681.00">
        <walk edges="TorPl_1_4 BynPl_1_1"/>
    </person>
    <person id="pedestrian140" depart="689.00">
        <walk edges="BynPl_1_1 BynPl_2_3"/>
    </person>
    <person id="pedestrian141" depart="693.00">
        <walk edges="MalPl_2_1"/>
    </person>
    <person id="pedestrian142" depart="694.00">
        <walk edges="MalPl_1_1 MalSt_2_1"/>
    </person>
    <person id="pedestrian143" depart="704.00">
        <walk edges="MalPl_2_1 MalPl_1_1"/>
    </person>
    <person id="pedestrian144" depart="709.00">
        <walk edges="TorPl_2_1 MalPl_2_1"/>
    </person>
    <person id="pedestrian145" depart="721.00">
        <walk edges="MalSt_2_1 TorPl_1_4"/>
    </person>
    <person id="pedestrian146" depart="729.00">
        <walk edges="TorPl_1_4 MalSt_2_1"/>
    </person>
    <person id="pedestrian147" depart="731.00">
        <walk edges="BynPl_1_1 MalPl_2_1"/>
    </person>
    <person id="pedestrian148" depart="735.00">
        <walk edges="MalSt_1_1 BynPl_1_1"/>
    </person>
    <person id="pedestrian149" depart="736.00">
        <walk edges="TorPl_1_4 MalSt_2_1"/>
    </person>
    <person id="pedestrian150" depart="736.00">
        <walk edges="BynPl_1_1 BynPl_2_3"/>
    </person>
    <person id="pedestrian151" depart="739.00">
        <walk edges="MalPl_2_1 TorPl_2_1"/>
    </person>
    <person id="pedestrian152" depart="740.00">
        <walk edges="BynPl_1_1 BynPl_2_3"/>
    </person>
    <person id="pedestrian153" depart="743.00">
        <walk edges="BynPl_1_1 TorPl_2_1"/>
    </person>
    <person id="pedestrian154" depart="743.00">
        <walk edges="MalPl_2_1 MalSt_1_1"/>
    </person>
    <person id="pedestrian155" depart="748.00">
        <walk edges="MalPl_1_1 TorPl_1_4"/>
    </person>
    <person id="pedestrian156" depart="756.00">
        <walk edges="MalSt_2_1 TorPl_2_1"/>
    </person>
    <person id="pedestrian157" depart="759.00">
        <walk edges="TorPl_2_1 BynPl_1_1"/>
    </person>
    <person id="pedestrian158" depart="762.00">
        <walk edges="BynPl_2_3 BynPl_1_1"/>
    </person>
    <person id="pedestrian159" depart="763.00">
        <walk edges="TorPl_1_4"/>
    </person>
    <person id="pedestrian160" depart="766.00">
        <walk edges="MalPl_2_1 TorPl_1_4"/>
    </person>
    <person id="pedestrian161" depart="768.00">
        <walk edges="TorPl_2_1 TorPl_1_4"/>
    </person>
    <person id="pedestrian162" depart="769.00">
        <walk edges="MalSt_2_1 BynPl_2_3"/>
    </person>
    <person id="pedestrian163" depart="772.00">
        <walk edges="TorPl_1_4 BynPl_1_1"/>
    </person>
    <person id="pedestrian164" depart="804.00">
        <walk edges="BynPl_1_1 MalSt_2_1"/>
    </person>
    <person id="pedestrian165" depart="804.00">
        <walk edges="MalPl_1_1 TorPl_2_1"/>
    </person>
    <person id="pedestrian166" depart="806.00">
        <walk edges="BynPl_1_1 TorPl_1_4"/>
    </person>
    <person id="pedestrian167" depart="820.00">
        <walk edges="MalSt_1_1 TorPl_2_1"/>
    </person>
    <person id="pedestrian168" depart="820.00">
        <walk edges="MalPl_2_1 BynPl_1_1"/>
    </person>
    <person id="pedestrian169" depart="824.00">
        <walk edges="MalSt_2_1 MalPl_1_1"/>
    </person>
    <person id="pedestrian170" depart="824.00">
        <walk edges="MalPl_1_1"/>
    </person>
    <person id="pedestrian171" depart="835.00">
        <walk edges="TorPl_1_4 TorPl_2_1"/>
    </person>
    <person id="pedestrian172" depart="845.00">
        <walk edges="BynPl_2_3 TorPl_1_4"/>
    </person>
    <person id="pedestrian173" depart="845.00">
        <walk edges="MalSt_1_1 MalPl_1_1"/>
    </person>
    <person id="pedestrian174" depart="847.00">
        <walk edges="BynPl_2_3 MalPl_2_1"/>
    </person>
    <person id="pedestrian175" depart="847.00">
        <walk edges="BynPl_2_3 MalPl_1_1"/>
    </person>
    <person id="pedestrian176" depart="854.00">
        <walk edges="MalSt_2_1 TorPl_2_1"/>
    </person>
    <person id="pedestrian177" depart="859.00">
        <walk edges="MalSt_1_1 BynPl_1_1"/>
    </person>
    <person id="pedestrian178" depart="863.00">
        <walk edges="MalPl_1_1 BynPl_1_1"/>
    </person>
    <person id="pedestrian179" depart="865.00">
        <walk edges="MalSt_2_1 BynPl_2_3"/>
    </person>
    <person id="pedestrian180" depart="867.00">
        <walk edges="MalSt_2_1 MalPl_2_1"/>
    </person>
    <person id="pedestrian181" depart="873.00">
        <walk edges="TorPl_1_4 MalPl_2_1"/>
    </person>
    <person id="pedestrian182" depart="877.00">
        <walk edges="BynPl_1_1 BynPl_2_3"/>
    </person>
    <person id="pedestrian183" depart="881.00">
        <walk edges="MalSt_2_1 TorPl_2_1"/>
    </person>
    <person id="pedestrian184" depart="881.00">
        <walk edges="BynPl_1_1 MalPl_2_1"/>
    </person>
    <person id="pedestrian185" depart="885.00">
        <walk edges="TorPl_2_1 MalPl_2_1"/>
    </person>
    <person id="pedestrian186" depart="885.00">
        <walk edges="BynPl_1_1 MalSt_1_1"/>
    </person>
    <person id="pedestrian187" depart="899.00">
        <walk edges="MalPl_2_1 MalPl_1_1"/>
    </person>
    <person id="pedestrian188" depart="903.00">
        <walk edges="MalPl_2_1 TorPl_2_1"/>
    </person>
    <person id="pedestrian189" depart="908.00">
        <walk edges="TorPl_2_1 BynPl_2_3"/>
    </person>
    <person id="pedestrian190" depart="912.00">
        <walk edges="MalPl_1_1 MalSt_2_1"/>
    </person>
    <person id="pedestrian191" depart="912.00">
        <walk edges="BynPl_2_3 MalPl_1_1"/>
    </person>
    <person id="pedestrian192" depart="923.00">
        <walk edges="MalSt_1_1 BynPl_2_3"/>
    </person>
    <person id="pedestrian193" depart="931.00">
        <walk edges="MalSt_1_1 BynPl_2_3"/>
    </person>
    <person id="pedestrian194" depart="932.00">
        <walk edges="MalPl_1_1 BynPl_2_3"/>
    </person>
    <person id="pedestrian195" depart="940.00">
        <walk edges="MalPl_1_1 BynPl_1_1"/>
    </person>
    <person id="pedestrian196" depart="957.00">
        <walk edges="BynPl_1_1 MalPl_2_1"/>
    </person>
    <person id="pedestrian197" depart="962.00">
        <walk edges="MalPl_1_1"/>
    </person>
    <person id="pedestrian198" depart="963.00">
        <walk edges="TorPl_2_1 MalSt_1_1"/>
    </person>
    <person id="pedestrian199" depart="964.00">
        <walk edges="MalPl_1_1 MalSt_1_1"/>
    </person>
    <person id="pedestrian200" depart="988.00">
        <walk edges="TorPl_1_4 BynPl_1_1"/>
    </person>
    <person id="pedestrian201" depart="990.00">
        <walk edges="MalSt_2_1 TorPl_1_4"/>
    </person>
    <person id="pedestrian202" depart="994.00">
        <walk edges="BynPl_1_1 MalSt_2_1"/>
    </person>
    <person id="pedestrian203" depart="1003.00">
        <walk edges="MalPl_2_1 MalSt_2_1"/>
    </person>
    <person id="pedestrian204" depart="1005.00">
        <walk edges="MalSt_1_1 TorPl_1_4"/>
    </person>
    <person id="pedestrian205" depart="1005.00">
        <walk edges="MalSt_2_1 MalSt_1_1"/>
    </person>
    <person id="pedestrian206" depart="1019.00">
        <walk edges="TorPl_1_4 MalPl_2_1"/>
    </person>
    <person id="pedestrian207" depart="1023.00">
        <walk edges="MalPl_1_1 TorPl_2_1"/>
    </person>
    <person id="pedestrian208" depart="1023.00">
        <walk edges="MalPl_1_1 MalSt_2_1"/>
    </person>
    <person id="pedestrian209" depart="1024.00">
        <walk edges="BynPl_1_1 TorPl_2_1"/>
    </person>
    <person id="pedestrian210" depart="1047.00">
        <walk edges="BynPl_2_3 BynPl_1_1"/>
    </person>
    <person id="pedestrian211" depart="1055.00">
        <walk edges="BynPl_1_1 MalSt_1_1"/>
    </person>
    <person id="pedestrian212" depart="1058.00">
        <walk edges="MalPl_1_1 BynPl_1_1"/>
    </person>
    <person id="pedestrian213" depart="1062.00">
        <walk edges="BynPl_1_1 TorPl_1_4"/>
    </person>
    <person id="pedestrian214" depart="1063.00">
        <walk edges="TorPl_2_1 MalSt_2_1"/>
    </person>
    <person id="pedestrian215" depart="1069.00">
        <walk edges="TorPl_2_1 BynPl_2_3"/>
    </person>
    <person id="pedestrian216" depart="1077.00">
        <walk edges="TorPl_2_1 MalSt_1_1"/>
    </person>
    <person id="pedestrian217" depart="1089.00">
        <walk edges="MalSt_2_1 MalPl_2_1"/>
    </person>
    <person id="pedestrian218" depart="1099.00">
        <walk edges="TorPl_2_1 MalSt_2_1"/>
    </person>
    <person id="pedestrian219" depart="1102.00">
        <walk edges="TorPl_2_1 MalPl_1_1"/>
    </person>
    <person id="pedestrian220" depart="1110.00">
        <walk edges="BynPl_2_3 MalSt_1_1"/>
    </person>
    <person id="pedestrian221" depart="1112.00">
        <walk edges="MalSt_2_1 MalPl_1_1"/>
    </person>
    <person id="pedestrian222" depart="1123.00">
        <walk edges="TorPl_1_4 MalPl_1_1"/>
    </person>
    <person id="pedestrian223" depart="1129.00">
        <walk edges="TorPl_2_1 TorPl_1_4"/>
    </person>
    <person id="pedestrian224" depart="1140.00">
        <walk edges="MalPl_2_1 TorPl_2_1"/>
    </person>
    <person id="pedestrian225" depart="1147.00">
        <walk edges="TorPl_2_1 BynPl_2_3"/>
    </person>
    <person id="pedestrian226" depart="1163.00">
        <walk edges="MalSt_2_1 BynPl_1_1"/>
    </person>
    <person id="pedestrian227" depart="1165.00">
        <walk edges="TorPl_2_1 BynPl_2_3"/>
    </person>
    <person id="pedestrian228" depart="1167.00">
        <walk edges="BynPl_1_1"/>
    </person>
    <person id="pedestrian229" depart="1168.00">
        <walk edges="TorPl_2_1 MalSt_1_1"/>
    </person>
    <person id="pedestrian230" depart="1168.00">
        <walk edges="MalSt_2_1 TorPl_1_4"/>
    </person>
    <person id="pedestrian231" depart="1172.00">
        <walk edges="BynPl_2_3 MalSt_2_1"/>
    </person>
    <person id="pedestrian232" depart="1173.00">
        <walk edges="MalSt_2_1 MalSt_1_1"/>
    </person>
    <person id="pedestrian233" depart="1176.00">
        <walk edges="TorPl_2_1 MalSt_2_1"/>
    </person>
    <person id="pedestrian234" depart="1183.00">
        <walk edges="MalPl_2_1 MalSt_2_1"/>
    </person>
    <person id="pedestrian235" depart="1192.00">
        <walk edges="MalSt_1_1 MalPl_1_1"/>
    </person>
    <person id="pedestrian236" depart="1193.00">
        <walk edges="MalPl_2_1 MalPl_1_1"/>
    </person>
    <person id="pedestrian237" depart="1199.00">
        <walk edges="MalPl_2_1 TorPl_1_4"/>
    </person>
    <person id="pedestrian238" depart="1200.00">
        <walk edges="MalPl_2_1 MalSt_2_1"/>
    </person>
    <person id="pedestrian239" depart="1207.00">
        <walk edges="MalSt_1_1 TorPl_1_4"/>
    </person>
    <person id="pedestrian240" depart="1218.00">
        <walk edges="BynPl_2_3"/>
    </person>
    <person id="pedestrian241" depart="1220.00">
        <walk edges="MalPl_2_1 MalSt_1_1"/>
    </person>
    <person id="pedestrian242" depart="1226.00">
        <walk edges="TorPl_1_4 MalPl_1_1"/>
    </person>
    <person id="pedestrian243" depart="1235.00">
        <walk edges="TorPl_2_1"/>
    </person>
    <person id="pedestrian244" depart="1235.00">
        <walk edges="MalSt_1_1 MalSt_2_1"/>
    </person>
    <person id="pedestrian245" depart="1237.00">
        <walk edges="MalSt_2_1 BynPl_2_3"/>
    </person>
    <person id="pedestrian246" depart="1241.00">
        <walk edges="MalPl_2_1 BynPl_2_3"/>
    </person>
    <person id="pedestrian247" depart="1241.00">
        <walk edges="MalSt_1_1 TorPl_1_4"/>
    </person>
    <person id="pedestrian248" depart="1249.00">
        <walk edges="TorPl_2_1 TorPl_1_4"/>
    </person>
    <person id="pedestrian249" depart="1251.00">
        <walk edges="TorPl_1_4"/>
    </person>
    <person id="pedestrian250" depart="1257.00">
        <walk edges="MalSt_2_1 TorPl_1_4"/>
    </person>
    <person id="pedestrian251" depart="1257.00">
        <walk edges="MalPl_1_1 MalSt_1_1"/>
    </person>
    <person id="pedestrian252" depart="1258.00">
        <walk edges="TorPl_2_1 MalPl_1_1"/>
    </person>
    <person id="pedestrian253" depart="1267.00">
        <walk edges="MalSt_2_1 MalPl_2_1"/>
    </person>
    <person id="pedestrian254" depart="1280.00">
        <walk edges="BynPl_2_3 MalPl_1_1"/>
    </person>
    <person id="pedestrian255" depart="1280.00">
        <walk edges="TorPl_1_4"/>
    </person>
    <person id="pedestrian256" depart="1284.00">
        <walk edges="BynPl_2_3 MalSt_2_1"/>
    </person>
    <person id="pedestrian257" depart="1284.00">
        <walk edges="MalSt_1_1 BynPl_1_1"/>
    </person>
    <person id="pedestrian258" depart="1290.00">
        <walk edges="BynPl_1_1 BynPl_2_3"/>
    </person>
    <person id="pedestrian259" depart="1295.00">
        <walk edges="TorPl_1_4 MalPl_2_1"/>
    </person>
    <person id="pedestrian260" depart="1300.00">
        <walk edges="TorPl_1_4"/>
    </person>
    <person id="pedestrian261" depart="1307.00">
        <walk edges="MalPl_1_1 BynPl_2_3"/>
    </person>
    <person id="pedestrian262" depart="1307.00">
        <walk edges="TorPl_2_1 BynPl_1_1"/>
    </person>
    <person id="pedestrian263" depart="1318.00">
        <walk edges="TorPl_1_4 MalPl_2_1"/>
    </person>
    <person id="pedestrian264" depart="1321.00">
        <walk edges="MalSt_1_1 MalPl_1_1"/>
    </person>
    <person id="pedestrian265" depart="1323.00">
        <walk edges="MalPl_2_1"/>
    </person>
    <person id="pedestrian266" depart="1332.00">
        <walk edges="MalPl_1_1 TorPl_1_4"/>
    </person>
    <person id="pedestrian267" depart="1337.00">
        <walk edges="MalPl_1_1 MalSt_2_1"/>
    </person>
    <person id="pedestrian268" depart="1342.00">
        <walk edges="BynPl_2_3 TorPl_2_1"/>
    </person>
    <person id="pedestrian269" depart="1343.00">
        <walk edges="MalPl_1_1"/>
    </person>
    <person id="pedestrian270" depart="1344.00">
        <walk edges="BynPl_1_1 MalPl_1_1"/>
    </person>
    <person id="pedestrian271" depart="1352.00">
        <walk edges="MalPl_1_1 TorPl_1_4"/>
    </person>