<?xml version="1.0" encoding="UTF-8"?>

<!-- generated on 2025-10-26 14:34:29.268722 by osmWebWizard.py v1_24_0+0000-b72eb3fabc8
<configuration>
    <net-file value="C:\Program Files (x86)\Eclipse\Sumo\tools\2025-10-26-14-34-17\osm.net.xml.gz"/>
    <output-trip-file value="C:\Program Files (x86)\Eclipse\Sumo\tools\2025-10-26-14-34-17\osm.truck.trips.xml"/>
    <route-file value="C:\Program Files (x86)\Eclipse\Sumo\tools\2025-10-26-14-34-17\osm.truck.rou.xml"/>
    <prefix value="truck"/>
    <trip-attributes value="departLane=&quot;best&quot;"/>
    <fringe-start-attributes value="departSpeed=&quot;max&quot;"/>
    <vehicle-class value="truck"/>
    <fringe-factor value="5"/>
    <edge-permission value="truck"/>
    <via-edge-types value="highway.motorway,highway.motorway_link,highway.trunk_link,highway.primary_link,highway.secondary_link,highway.tertiary_link"/>
    <seed value="47"/>
    <min-distance value="600.0"/>
    <min-distance.fringe value="10.0"/>
    <remove-loops value="True"/>
    <insertion-density value="8.0"/>
</configuration>
-->

<routes xmlns:xsi="http://www.w3.org/2001/XMLSchema-instance" xsi:noNamespaceSchemaLocation="http://sumo.dlr.de/xsd/routes_file.xsd">
    <vType id="truck_truck" vClass="truck"/>
    <trip id="truck0" depart="0.00" from="1112581130" to="1007519970" departLane="best" type="truck_truck"/>
    <trip id="truck1" depart="17.13" from="1200989934" to="1065127939#0" departLane="best" type="truck_truck"/>
    <trip id="truck2" depart="34.26" from="-1245947684" to="1112581136" departLane="best" type="truck_truck"/>
    <trip id="truck3" depart="51.39" from="-1065127941" to="-316158482#1" departLane="best" type="truck_truck" departSpeed="max"/>
    <trip id="truck4" depart="68.53" from="17929789" to="-746410871" departLane="best" type="truck_truck"/>
    <trip id="truck5" depart="85.66" from="860776043#0" to="-1112581137#1" departLane="best" type="truck_truck"/>
    <trip id="truck6" depart="102.79" from="1007519979" to="41588174#0" departLane="best" type="truck_truck"/>
    <trip id="truck7" depart="119.92" from="4257239" to="-825288043" departLane="best" type="truck_truck" departSpeed="max"/>
    <trip id="truck8" depart="137.05" from="587317657#0" to="825288054" departLane="best" type="truck_truck" departSpeed="max"/>
    <trip id="truck9" depart="154.18" from="-1186049313#1" to="1006641971#1" departLane="best" type="truck_truck"/>
    <trip id="truck10" depart="171.32" from="823008429" to="681757485" departLane="best" type="truck_truck"/>
    <trip id="truck11" depart="188.45" from="4257240" to="311804826" departLane="best" type="truck_truck" departSpeed="max"/>
    <trip id="truck12" depart="205.58" from="4257240" to="-825288043" departLane="best" type="truck_truck" departSpeed="max"/>
    <trip id="truck13" depart="222.71" from="1112581140" to="884555186" departLane="best" type="truck_truck"/>
    <trip id="truck14" depart="239.84" from="884555189" to="26834677#0" departLane="best" type="truck_truck"/>
    <trip id="truck15" depart="256.97" from="1065177555" to="987343785#0" departLane="best" type="truck_truck" departSpeed="max"/>
    <trip id="truck16" depart="274.11" from="505739792" to="24936216" departLane="best" type="truck_truck" departSpeed="max"/>
    <trip id="truck17" depart="291.24" from="7970886" to="-1112581137#1" departLane="best" type="truck_truck"/>
    <trip id="truck18" depart="308.37" from="49934843#0" to="1006631257" departLane="best" type="truck_truck"/>
    <trip id="truck19" depart="325.50" from="-1065127941" to="-825288054" departLane="best" type="truck_truck" departSpeed="max"/>
    <trip id="truck20" depart="342.63" from="860776043#0" to="4253988#0" departLane="best" type="truck_truck"/>
    <trip id="truck21" depart="359.76" from="-1003519506" to="-4253996#1" departLane="best" type="truck_truck"/>
    <trip id="truck22" depart="376.89" from="-1245947684" to="-558255409#1" departLane="best" type="truck_truck"/>
    <trip id="truck23" depart="394.03" from="1200989934" to="1340003587#0" departLane="best" type="truck_truck"/>
    <trip id="truck24" depart="411.16" from="587317657#0" to="837448595#0" departLane="best" type="truck_truck" departSpeed="max"/>
    <trip id="truck25" depart="428.29" from="746410871" to="-747155719#1" departLane="best" type="truck_truck"/>
    <trip id="truck26" depart="445.42" from="-18309858#3" to="-4256304" departLane="best" type="truck_truck"/>
    <trip id="truck27" depart="462.55" from="1245946974" to="-825288043" departLane="best" type="truck_truck"/>
    <trip id="truck28" depart="479.68" from="747155719#0" to="235992910" departLane="best" type="truck_truck"/>
    <trip id="truck29" depart="496.82" from="1245947684" to="501243983" departLane="best" type="truck_truck"/>
    <trip id="truck30" depart="513.95" from="26763531" to="987343785#0" departLane="best" type="truck_truck" departSpeed="max"/>
    <trip id="truck31" depart="531.08" from="150133378#0" to="501243983" departLane="best" type="truck_truck"/>
    <trip id="truck32" depart="548.21" from="-1065127941" to="-316158482#1" departLane="best" type="truck_truck" departSpeed="max"/>
    <trip id="truck33" depart="565.34" from="-747155719#1" to="24936216" departLane="best" type="truck_truck"/>
    <trip id="truck34" depart="582.47" from="239761119" to="236141635#0" departLane="best" type="truck_truck"/>
    <trip id="truck35" depart="599.61" from="-3087449#3" to="876833210" departLane="best" type="truck_truck" departSpeed="max"/>
    <trip id="truck36" depart="616.74" from="841081307" to="237413929#0" departLane="best" type="truck_truck"/>
    <trip id="truck37" depart="633.87" from="825288043" to="687481231#0" departLane="best" type="truck_truck"/>
    <trip id="truck38" depart="651.00" from="4257235" to="1007519989" departLane="best" type="truck_truck" departSpeed="max"/>
    <trip id="truck39" depart="668.13" from="1003519506" to="746410865" departLane="best" type="truck_truck"/>
    <trip id="truck40" depart="685.26" from="-884555186" to="40606945" departLane="best" type="truck_truck" departSpeed="max"/>
    <trip id="truck41" depart="702.39" from="-4253988#2" to="1340003587#0" departLane="best" type="truck_truck" departSpeed="max"/>
    <trip id="truck42" depart="719.53" from="-1065177554#1" to="746410865" departLane="best" type="truck_truck"/>
    <trip id="truck43" depart="736.66" from="1205368709" to="31259042" departLane="best" type="truck_truck"/>
    <trip id="truck44" depart="753.79" from="1059707542#0" to="17513379" departLane="best" type="truck_truck"/>
    <trip id="truck45" depart="770.92" from="851719169" to="17513379" departLane="best" type="truck_truck"/>
    <trip id="truck46" depart="788.05" from="1200989935#0" to="1006630385" departLane="best" type="truck_truck"/>
    <trip id="truck47" depart="805.18" from="-1065127941" to="311804827#1" departLane="best" type="truck_truck" departSpeed="max"/>
    <trip id="truck48" depart="822.32" from="746410870" to="687481231#0" departLane="best" type="truck_truck"/>
    <trip id="truck49" depart="839.45" from="770901750#0" to="3087449#0" departLane="best" type="truck_truck" departSpeed="max"/>
    <trip id="truck50" depart="856.58" from="236141635#0" to="3127740#0" departLane="best" type="truck_truck"/>
    <trip id="truck51" depart="873.71" from="1200989934" to="-316158482#1" departLane="best" type="truck_truck"/>
    <trip id="truck52" depart="890.84" from="746410872#1" to="-316158482#1" departLane="best" type="truck_truck"/>
    <trip id="truck53" depart="907.97" from="770901750#0" to="1006641961" departLane="best" type="truck_truck" departSpeed="max"/>
    <trip id="truck54" depart="925.11" from="4082616" to="1340003587#0" departLane="best" type="truck_truck"/>
    <trip id="truck55" depart="942.24" from="306452416#0" to="-316158482#1" departLane="best" type="truck_truck"/>
    <trip id="truck56" depart="959.37" from="1112581140" to="90247861" departLane="best" type="truck_truck"/>
    <trip id="truck57" depart="976.50" from="4257240" to="-996665163" departLane="best" type="truck_truck" departSpeed="max"/>
    <trip id="truck58" depart="993.63" from="-18309858#3" to="4253998#0" departLane="best" type="truck_truck"/>
    <trip id="truck59" depart="1010.76" from="26294450#0" to="-1059707545" departLane="best" type="truck_truck"/>
    <trip id="truck60" depart="1027.89" from="-23163731" to="3087449#0" departLane="best" type="truck_truck"/>
    <trip id="truck61" depart="1045.03" from="-567941579" to="746410865" departLane="best" type="truck_truck"/>
    <trip id="truck62" depart="1062.16" from="41588174#0" to="-306452424#3" departLane="best" type="truck_truck"/>
    <trip id="truck63" depart="1079.29" from="314895559" to="1007519972" departLane="best" type="truck_truck"/>
    <trip id="truck64" depart="1096.42" from="-3087449#3" to="1006631257" departLane="best" type="truck_truck" departSpeed="max"/>
    <trip id="truck65" depart="1113.55" from="884555178" to="675079978#0" departLane="best" type="truck_truck"/>
    <trip id="truck66" depart="1130.68" from="4257240" to="4059308#2" departLane="best" type="truck_truck" departSpeed="max"/>
    <trip id="truck67" depart="1147.82" from="881317813" to="-17929789" departLane="best" type="truck_truck"/>
    <trip id="truck68" depart="1164.95" from="1065177555" to="306452416#0" departLane="best" type="truck_truck" departSpeed="max"/>
    <trip id="truck69" depart="1182.08" from="884555181" to="49934840#0" departLane="best" type="truck_truck"/>
    <trip id="truck70" depart="1199.21" from="770901750#0" to="4059326#0" departLane="best" type="truck_truck" departSpeed="max"/>
    <trip id="truck71" depart="1216.34" from="1186049313#0" to="825515804" departLane="best" type="truck_truck"/>
    <trip id="truck72" depart="1233.47" from="-1059707545" to="1007519972" departLane="best" type="truck_truck"/>
    <trip id="truck73" depart="1250.61" from="758462267#0" to="-4256304" departLane="best" type="truck_truck"/>
    <trip id="truck74" depart="1267.74" from="1059707542#0" to="1112581139#0" departLane="best" type="truck_truck"/>
    <trip id="truck75" depart="1284.87" from="-17513383#5" to="-1112581137#1" departLane="best" type="truck_truck"/>
    <trip id="truck76" depart="1302.00" from="1065177555" to="681757485" departLane="best" type="truck_truck" departSpeed="max"/>
    <trip id="truck77" depart="1319.13" from="996665162#0" to="-23163731" departLane="best" type="truck_truck"/>
    <trip id="truck78" depart="1336.26" from="1059707542#0" to="561132269#0" departLane="best" type="truck_truck"/>
    <trip id="truck79" depart="1353.39" from="-841081307" to="-4059327#2" departLane="best" type="truck_truck"/>
    <trip id="truck80" depart="1370.53" from="1112581137#0" to="884555186" departLane="best" type="truck_truck" departSpeed="max"/>
    <trip id="truck81" depart="1387.66" from="-884555186" to="589640599" departLane="best" type="truck_truck" departSpeed="max"/>
    <trip id="truck82" depart="1404.79" from="541926390#0" to="17929796#0" departLane="best" type="truck_truck"/>
    <trip id="truck83" depart="1421.92" from="41518102" to="-18309858#3" departLane="best" type="truck_truck"/>
    <trip id="truck84" depart="1439.05" from="770901750#0" to="1205368718#0" departLane="best" type="truck_truck" departSpeed="max"/>
    <trip id="truck85" depart="1456.18" from="-3087449#3" to="687481231#0" departLane="best" type="truck_truck" departSpeed="max"/>
    <trip id="truck86" depart="1473.32" from="-360934008#4" to="-694562117" departLane="best" type="truck_truck" departSpeed="max"/>
    <trip id="truck87" depart="1490.45" from="4257235" to="49932187" departLane="best" type="truck_truck" departSpeed="max"/>
    <trip id="truck88" depart="1507.58" from="996665163" to="-837448598" departLane="best" type="truck_truck"/>
    <trip id="truck89" depart="1524.71" from="62036628" to="884555174#0" departLane="best" type="truck_truck"/>
    <trip id="truck90" depart="1541.84" from="26763531" to="306452416#0" departLane="best" type="truck_truck" departSpeed="max"/>
    <trip id="truck91" depart="1558.97" from="239761119" to="303559639#3" departLane="best" type="truck_truck"/>
    <trip id="truck92" depart="1576.11" from="1007519979" to="-913020667" departLane="best" type="truck_truck"/>
    <trip id="truck93" depart="1593.24" from="747155719#0" to="1065177554#0" departLane="best" type="truck_truck"/>
    <trip id="truck94" depart="1610.37" from="1112581136" to="-316158482#1" departLane="best" type="truck_truck"/>
    <trip id="truck95" depart="1627.50" from="746410872#0" to="4059307#0" departLane="best" type="truck_truck" departSpeed="max"/>
    <trip id="truck96" depart="1644.63" from="235992910" to="1007655987" departLane="best" type="truck_truck"/>
    <trip id="truck97" depart="1661.76" from="279154263" to="758462268" departLane="best" type="truck_truck" departSpeed="max"/>
    <trip id="truck98" depart="1678.89" from="-41588174#1" to="-837448598" departLane="best" type="truck_truck" departSpeed="max"/>
    <trip id="truck99" depart="1696.03" from="-4253988#2" to="687481231#0" departLane="best" type="truck_truck" departSpeed="max"/>
    <trip id="truck100" depart="1713.16" from="837448595#0" to="1007519989" departLane="best" type="truck_truck"/>
    <trip id="truck101" depart="1730.29" from="747155719#0" to="837448595#0" departLane="best" type="truck_truck"/>
    <trip id="truck102" depart="1747.42" from="150133378#0" to="-746410870" departLane="best" type="truck_truck"/>
    <trip id="truck103" depart="1764.55" from="587315169#0" to="1006641964" departLane="best" type="truck_truck"/>
    <trip id="truck104" depart="1781.68" from="-1245947684" to="876833210" departLane="best" type="truck_truck"/>
    <trip id="truck105" depart="1798.82" from="24936260#0" to="485039787#0" departLane="best" type="truck_truck"/>
    <trip id="truck106" depart="1815.95" from="-4257237#1" to="587315169#0" departLane="best" type="truck_truck" departSpeed="max"/>
    <trip id="truck107" depart="1833.08" from="4257235" to="4059326#0" departLane="best" type="truck_truck" departSpeed="max"/>
    <trip id="truck108" depart="1850.21" from="-694562111#1" to="311804827#1" departLane="best" type="truck_truck"/>
    <trip id="truck109" depart="1867.34" from="-1232962008" to="884555186" departLane="best" type="truck_truck"/>
    <trip id="truck110" depart="1884.47" from="823008428" to="1006641969" departLane="best" type="truck_truck"/>
    <trip id="truck111" depart="1901.61" from="-1065127941" to="511545507" departLane="best" type="truck_truck" departSpeed="max"/>
    <trip id="truck112" depart="1918.74" from="1059707540#0" to="837448598" departLane="best" type="truck_truck"/>
    <trip id="truck113" depart="1935.87" from="614306542#0" to="49932187" departLane="best" type="truck_truck"/>
    <trip id="truck114" depart="1953.00" from="746410871" to="-694562117" departLane="best" type="truck_truck"/>
    <trip id="truck115" depart="1970.13" from="884555182" to="1006641964" departLane="best" type="truck_truck"/>
    <trip id="truck116" depart="1987.26" from="235992910" to="-306452416#4" departLane="best" type="truck_truck"/>
    <trip id="truck117" depart="2004.39" from="26294450#0" to="687481231#0" departLane="best" type="truck_truck"/>
    <trip id="truck118" depart="2021.53" from="279154263" to="746410870" departLane="best" type="truck_truck" departSpeed="max"/>
    <trip id="truck119" depart="2038.66" from="542832660#0" to="-587317657#1" departLane="best" type="truck_truck"/>
    <trip id="truck120" depart="2055.79" from="4257239" to="-1112581137#1" departLane="best" type="truck_truck" departSpeed="max"/>
    <trip id="truck121" depart="2072.92" from="24936260#0" to="17929789" departLane="best" type="truck_truck"/>
    <trip id="truck122" depart="2090.05" from="758462266#0" to="311804827#0" departLane="best" type="truck_truck"/>
    <trip id="truck123" depart="2107.18" from="-4257237#1" to="1007519970" departLane="best" type="truck_truck" departSpeed="max"/>
    <trip id="truck124" depart="2124.32" from="694562117" to="3128349#0" departLane="best" type="truck_truck"/>
    <trip id="truck125" depart="2141.45" from="4257235" to="687481231#0" departLane="best" type="truck_truck" departSpeed="max"/>
    <trip id="truck126" depart="2158.58" from="1186049313#0" to="3128255#2" departLane="best" type="truck_truck"/>
    <trip id="truck127" depart="2175.71" from="881317813" to="1006641971#1" departLane="best" type="truck_truck"/>
    <trip id="truck128" depart="2192.84" from="4059308#2" to="605078469#0" departLane="best" type="truck_truck"/>
    <trip id="truck129" depart="2209.97" from="1062480573#0" to="-825515804" departLane="best" type="truck_truck"/>
    <trip id="truck130" depart="2227.11" from="-49934843#2" to="303559639#0" departLane="best" type="truck_truck"/>
    <trip id="truck131" depart="2244.24" from="-1065127941" to="-1062480575" departLane="best" type="truck_truck" departSpeed="max"/>
    <trip id="truck132" depart="2261.37" from="1112581130" to="-18309858#3" departLane="best" type="truck_truck"/>
    <trip id="truck133" depart="2278.50" from="-3087449#3" to="-1112581137#1" departLane="best" type="truck_truck" departSpeed="max"/>
    <trip id="truck134" depart="2295.63" from="587317657#0" to="-49932184#1" departLane="best" type="truck_truck" departSpeed="max"/>
    <trip id="truck135" depart="2312.76" from="-884555186" to="26834677#0" departLane="best" type="truck_truck" departSpeed="max"/>
    <trip id="truck136" depart="2329.89" from="-884555186" to="24936218" departLane="best" type="truck_truck" departSpeed="max"/>
    <trip id="truck137" depart="2347.03" from="997309342#0" to="49932187" departLane="best" type="truck_truck"/>
    <trip id="truck138" depart="2364.16" from="501243983" to="-567941579" departLane="best" type="truck_truck"/>
    <trip id="truck139" depart="2381.29" from="-4257237#1" to="49934825#0" departLane="best" type="truck_truck" departSpeed="max"/>
    <trip id="truck140" depart="2398.42" from="-4253998#1" to="-1065127940" departLane="best" type="truck_truck" departSpeed="max"/>
    <trip id="truck141" depart="2415.55" from="26834676" to="-913020667" departLane="best" type="truck_truck"/>
    <trip id="truck142" depart="2432.68" from="884555185" to="27188930" departLane="best" type="truck_truck"/>
    <trip id="truck143" depart="2449.82" from="26763531" to="-18309858#3" departLane="best" type="truck_truck" departSpeed="max"/>
    <trip id="truck144" depart="2466.95" from="505739792" to="-558255409#1" departLane="best" type="truck_truck" departSpeed="max"/>
    <trip id="truck145" depart="2484.08" from="-41588174#1" to="485039787#0" departLane="best" type="truck_truck" departSpeed="max"/>
    <trip id="truck146" depart="2501.21" from="-851719171#1" to="4253998#0" departLane="best" type="truck_truck"/>
    <trip id="truck147" depart="2518.34" from="1006630385" to="-311804827#1" departLane="best" type="truck_truck"/>
    <trip id="truck148" depart="2535.47" from="237413929#0" to="-671964048" departLane="best" type="truck_truck"/>
    <trip id="truck149" depart="2552.61" from="1007655988" to="49932187" departLane="best" type="truck_truck"/>
    <trip id="truck150" depart="2569.74" from="-3087449#3" to="4253988#0" departLane="best" type="truck_truck" departSpeed="max"/>
    <trip id="truck151" depart="2586.87" from="-4253988#2" to="40606945" departLane="best" type="truck_truck" departSpeed="max"/>
    <trip id="truck152" depart="2604.00" from="-541926390#3" to="49934825#0" departLane="best" type="truck_truck" departSpeed="max"/>
    <trip id="truck153" depart="2621.13" from="1112581135" to="-884555184#1" departLane="best" type="truck_truck"/>
    <trip id="truck154" depart="2638.26" from="825515804" to="758462267#0" departLane="best" type="truck_truck"/>
    <trip id="truck155" depart="2655.39" from="-851719171#1" to="-825515804" departLane="best" type="truck_truck"/>
    <trip id="truck156" depart="2672.53" from="62036630" to="1007519989" departLane="best" type="truck_truck"/>
    <trip id="truck157" depart="2689.66" from="1059707540#0" to="-3128255#1" departLane="best" type="truck_truck"/>
    <trip id="truck158" depart="2706.79" from="-913020667" to="-825515804" departLane="best" type="truck_truck"/>
    <trip id="truck159" depart="2723.92" from="-41588157" to="987343785#0" departLane="best" type="truck_truck"/>
    <trip id="truck160" depart="2741.05" from="4257240" to="49932187" departLane="best" type="truck_truck" departSpeed="max"/>
    <trip id="truck161" depart="2758.18" from="-1065127941" to="746410870" departLane="best" type="truck_truck" departSpeed="max"/>
    <trip id="truck162" depart="2775.32" from="587317657#0" to="-825288057" departLane="best" type="truck_truck" departSpeed="max"/>
    <trip id="truck163" depart="2792.45" from="237413929#0" to="913020667" departLane="best" type="truck_truck"/>
    <trip id="truck164" depart="2809.58" from="4257240" to="1112581139#0" departLane="best" type="truck_truck" departSpeed="max"/>
    <trip id="truck165" depart="2826.71" from="-4257237#1" to="-587315169#1" departLane="best" type="truck_truck" departSpeed="max"/>
    <trip id="truck166" depart="2843.84" from="-1065127938" to="24936260#0" departLane="best" type="truck_truck"/>
    <trip id="truck167" depart="2860.97" from="4082615#0" to="49932187" departLane="best" type="truck_truck"/>
    <trip id="truck168" depart="2878.11" from="1200987340" to="3128255#0" departLane="best" type="truck_truck" departSpeed="max"/>
    <trip id="truck169" depart="2895.24" from="4257239" to="3087449#0" departLane="best" type="truck_truck" departSpeed="max"/>
    <trip id="truck170" depart="2912.37" from="1186049315" to="1100812341#0" departLane="best" type="truck_truck"/>
    <trip id="truck171" depart="2929.50" from="-1065127940" to="17929796#0" departLane="best" type="truck_truck"/>
    <trip id="truck172" depart="2946.63" from="26294450#0" to="681757485" departLane="best" type="truck_truck"/>
    <trip id="truck173" depart="2963.76" from="694563843" to="-837448598" departLane="best" type="truck_truck"/>
    <trip id="truck174" depart="2980.89" from="-4253988#2" to="758462266#0" departLane="best" type="truck_truck" departSpeed="max"/>
    <trip id="truck175" depart="2998.03" from="505739792" to="837448601" departLane="best" type="truck_truck" departSpeed="max"/>
    <trip id="truck176" depart="3015.16" from="-558255409#1" to="758462267#0" departLane="best" type="truck_truck"/>
    <trip id="truck177" depart="3032.29" from="4257240" to="511545507" departLane="best" type="truck_truck" departSpeed="max"/>
    <trip id="truck178" depart="3049.42" from="311804827#1" to="-851719169" departLane="best" type="truck_truck"/>
    <trip id="truck179" depart="3066.55" from="-587315169#1" to="1006641966" departLane="best" type="truck_truck"/>
    <trip id="truck180" depart="3083.68" from="1007519966" to="26834677#0" departLane="best" type="truck_truck"/>
    <trip id="truck181" depart="3100.82" from="1062480573#0" to="4253994#0" departLane="best" type="truck_truck"/>
    <trip id="truck182" depart="3117.95" from="4059308#0" to="746410870" departLane="best" type="truck_truck"/>
    <trip id="truck183" depart="3135.08" from="279154263" to="-49932186#2" departLane="best" type="truck_truck" departSpeed="max"/>
    <trip id="truck184" depart="3152.21" from="-4257237#1" to="1006641971#1" departLane="best" type="truck_truck" departSpeed="max"/>
    <trip id="truck185" depart="3169.34" from="235992910" to="485039787#1" departLane="best" type="truck_truck"/>
    <trip id="truck186" depart="3186.47" from="1245947684" to="1186049314" departLane="best" type="truck_truck"/>
    <trip id="truck187" depart="3203.61" from="3087832#0" to="26834676" departLane="best" type="truck_truck"/>
    <trip id="truck188" depart="3220.74" from="-17929789" to="4253988#0" departLane="best" type="truck_truck"/>
    <trip id="truck189" depart="3237.87" from="-360934008#4" to="1006641971#1" departLane="best" type="truck_truck" departSpeed="max"/>
    <trip id="truck190" depart="3255.00" from="1112581137#0" to="-316158482#1" departLane="best" type="truck_truck" departSpeed="max"/>
    <trip id="truck191" depart="3272.13" from="17929793#0" to="746410872#1" departLane="best" type="truck_truck"/>
    <trip id="truck192" depart="3289.26" from="825288051" to="1007655987" departLane="best" type="truck_truck"/>
    <trip id="truck193" depart="3306.39" from="-41588174#1" to="17513383#0" departLane="best" type="truck_truck" departSpeed="max"/>
    <trip id="truck194" depart="3323.53" from="-41588174#1" to="1006641971#1" departLane="best" type="truck_truck" departSpeed="max"/>
    <trip id="truck195" depart="3340.66" from="770901750#0" to="1007655988" departLane="best" type="truck_truck" departSpeed="max"/>
    <trip id="truck196" depart="3357.79" from="770901750#0" to="1112581140" departLane="best" type="truck_truck" departSpeed="max"/>
    <trip id="truck197" depart="3374.92" from="505739792" to="997309342#0" departLane="best" type="truck_truck" departSpeed="max"/>
    <trip id="truck198" depart="3392.05" from="4257235" to="-1065258328#2" departLane="best" type="truck_truck" departSpeed="max"/>
    <trip id="truck199" depart="3409.18" from="-4059325#5" to="-4256304" departLane="best" type="truck_truck"/>
    <trip id="truck200" depart="3426.32" from="-541926390#3" to="-18309858#3" departLane="best" type="truck_truck" departSpeed="max"/>
    <trip id="truck201" depart="3443.45" from="-4253988#2" to="589640599" departLane="best" type="truck_truck" departSpeed="max"/>
    <trip id="truck202" depart="3460.58" from="-1065258328#2" to="996665163" departLane="best" type="truck_truck"/>
    <trip id="truck203" depart="3477.71" from="-589644425" to="4253988#0" departLane="best" type="truck_truck"/>
    <trip id="truck204" depart="3494.84" from="1062480573#0" to="3128255#2" departLane="best" type="truck_truck"/>
    <trip id="truck205" depart="3511.97" from="1065177555" to="837448598" departLane="best" type="truck_truck" departSpeed="max"/>
    <trip id="truck206" depart="3529.11" from="746410872#0" to="-17513383#5" departLane="best" type="truck_truck" departSpeed="max"/>
    <trip id="truck207" depart="3546.24" from="1205368709" to="561132269#0" departLane="best" type="truck_truck"/>
    <trip id="truck208" depart="3563.37" from="-4253994#2" to="31259042" departLane="best" type="truck_truck" departSpeed="max"/>
    <trip id="truck209" depart="3580.50" from="-541926390#3" to="-825515804" departLane="best" type="truck_truck" departSpeed="max"/>
    <trip id="truck210" depart="3597.63" from="-746410870" to="-851719171#1" departLane="best" type="truck_truck"/>
</routes>
