<?xml version="1.0" encoding="UTF-8"?>

<!-- generated on 2025-10-26 14:34:28.213052 by osmWebWizard.py v1_24_0+0000-b72eb3fabc8
<configuration>
    <net-file value="C:\Program Files (x86)\Eclipse\Sumo\tools\2025-10-26-14-34-17\osm.net.xml.gz"/>
    <output-trip-file value="C:\Program Files (x86)\Eclipse\Sumo\tools\2025-10-26-14-34-17\osm.passenger.trips.xml"/>
    <route-file value="C:\Program Files (x86)\Eclipse\Sumo\tools\2025-10-26-14-34-17\osm.passenger.rou.xml"/>
    <prefix value="veh"/>
    <trip-attributes value="departLane=&quot;best&quot;"/>
    <fringe-start-attributes value="departSpeed=&quot;max&quot;"/>
    <vehicle-class value="passenger"/>
    <lanes value="True"/>
    <fringe-factor value="5"/>
    <allow-fringe.min-length value="1000.0"/>
    <edge-permission value="passenger"/>
    <via-edge-types value="highway.motorway,highway.motorway_link,highway.trunk_link,highway.primary_link,highway.secondary_link,highway.tertiary_link"/>
    <seed value="45"/>
    <min-distance value="300.0"/>
    <min-distance.fringe value="10.0"/>
    <remove-loops value="True"/>
    <insertion-density value="12.0"/>
</configuration>
-->

<routes xmlns:xsi="http://www.w3.org/2001/XMLSchema-instance" xsi:noNamespaceSchemaLocation="http://sumo.dlr.de/xsd/routes_file.xsd">
    <vType id="veh_passenger" vClass="passenger"/>
    <trip id="veh0" depart="0.00" from="-841081307" to="1245947684" departLane="best" type="veh_passenger"/>
    <trip id="veh1" depart="11.42" from="-3087449#3" to="1006641971#1" departLane="best" type="veh_passenger" departSpeed="max"/>
    <trip id="veh2" depart="22.84" from="-303559648#5" to="-1062480575" departLane="best" type="veh_passenger"/>
    <trip id="veh3" depart="34.26" from="-884555189" to="49934825#0" departLane="best" type="veh_passenger"/>
    <trip id="veh4" depart="45.68" from="-1232962008" to="31259042" departLane="best" type="veh_passenger"/>
    <trip id="veh5" depart="57.11" from="-4253994#2" to="589640599" departLane="best" type="veh_passenger" departSpeed="max"/>
    <trip id="veh6" depart="68.53" from="4257239" to="-746410870" departLane="best" type="veh_passenger" departSpeed="max"/>
    <trip id="veh7" depart="79.95" from="41518102" to="837448601" departLane="best" type="veh_passenger"/>
    <trip id="veh8" depart="91.37" from="-4257237#1" to="-837448598" departLane="best" type="veh_passenger" departSpeed="max"/>
    <trip id="veh9" depart="102.79" from="4257240" to="1006641961" departLane="best" type="veh_passenger" departSpeed="max"/>
    <trip id="veh10" depart="114.21" from="4257239" to="4059308#0" departLane="best" type="veh_passenger" departSpeed="max"/>
    <trip id="veh11" depart="125.63" from="587315169#0" to="3241842" departLane="best" type="veh_passenger"/>
    <trip id="veh12" depart="137.05" from="24936216" to="-237413929#4" departLane="best" type="veh_passenger"/>
    <trip id="veh13" depart="148.47" from="823008429" to="825288057" departLane="best" type="veh_passenger"/>
    <trip id="veh14" depart="159.89" from="1007519970" to="31259042" departLane="best" type="veh_passenger"/>
    <trip id="veh15" depart="171.32" from="26834676" to="-884555184#1" departLane="best" type="veh_passenger"/>
    <trip id="veh16" depart="182.74" from="1065127939#0" to="687481231#0" departLane="best" type="veh_passenger"/>
    <trip id="veh17" depart="194.16" from="-4253994#2" to="1186049314" departLane="best" type="veh_passenger" departSpeed="max"/>
    <trip id="veh18" depart="205.58" from="-311804827#0" to="1051341393" departLane="best" type="veh_passenger"/>
    <trip id="veh19" depart="217.00" from="-1100812341#1" to="746410872#1" departLane="best" type="veh_passenger"/>
    <trip id="veh20" depart="228.42" from="3127740#0" to="17929796#0" departLane="best" type="veh_passenger"/>
    <trip id="veh21" depart="239.84" from="-884555184#1" to="-913020667" departLane="best" type="veh_passenger"/>
    <trip id="veh22" depart="251.26" from="-17513383#5" to="881317813" departLane="best" type="veh_passenger"/>
    <trip id="veh23" depart="262.68" from="-360934008#4" to="31259042" departLane="best" type="veh_passenger" departSpeed="max"/>
    <trip id="veh24" depart="274.11" from="23163731" to="1007519988#0" departLane="best" type="veh_passenger"/>
    <trip id="veh25" depart="285.53" from="-884555174#1" to="1112581140" departLane="best" type="veh_passenger"/>
    <trip id="veh26" depart="296.95" from="1003519506" to="884555186" departLane="best" type="veh_passenger"/>
    <trip id="veh27" depart="308.37" from="881317813" to="746410865" departLane="best" type="veh_passenger"/>
    <trip id="veh28" depart="319.79" from="49934843#0" to="825178802" departLane="best" type="veh_passenger"/>
    <trip id="veh29" depart="331.21" from="-3087449#3" to="4253994#0" departLane="best" type="veh_passenger" departSpeed="max"/>
    <trip id="veh30" depart="342.63" from="746410871" to="1059707540#0" departLane="best" type="veh_passenger"/>
    <trip id="veh31" depart="354.05" from="1040323294" to="1033680852" departLane="best" type="veh_passenger"/>
    <trip id="veh32" depart="365.47" from="-303559648#5" to="3087449#0" departLane="best" type="veh_passenger"/>
    <trip id="veh33" depart="376.89" from="694563843" to="4253988#0" departLane="best" type="veh_passenger"/>
    <trip id="veh34" depart="388.32" from="851719169" to="1059707545" departLane="best" type="veh_passenger"/>
    <trip id="veh35" depart="399.74" from="4059307#0" to="3087449#0" departLane="best" type="veh_passenger"/>
    <trip id="veh36" depart="411.16" from="746410872#0" to="314895559" departLane="best" type="veh_passenger" departSpeed="max"/>
    <trip id="veh37" depart="422.58" from="237413929#0" to="-23163731" departLane="best" type="veh_passenger"/>
    <trip id="veh38" depart="434.00" from="823008428" to="-825288054" departLane="best" type="veh_passenger"/>
    <trip id="veh39" depart="445.42" from="-746410871" to="-189241670#1" departLane="best" type="veh_passenger"/>
    <trip id="veh40" depart="456.84" from="837448595#0" to="589640599" departLane="best" type="veh_passenger"/>
    <trip id="veh41" depart="468.26" from="9616291" to="1200989935#0" departLane="best" type="veh_passenger"/>
    <trip id="veh42" depart="479.68" from="770901750#0" to="26294450#0" departLane="best" type="veh_passenger" departSpeed="max"/>
    <trip id="veh43" depart="491.11" from="-24936260#3" to="1007519988#0" departLane="best" type="veh_passenger"/>
    <trip id="veh44" depart="502.53" from="4082616" to="-3128349#4" departLane="best" type="veh_passenger"/>
    <trip id="veh45" depart="513.95" from="4257239" to="4068452" departLane="best" type="veh_passenger" departSpeed="max"/>
    <trip id="veh46" depart="525.37" from="24936216" to="561132269#0" departLane="best" type="veh_passenger"/>
    <trip id="veh47" depart="536.79" from="1059707545" to="303559639#0" departLane="best" type="veh_passenger"/>
    <trip id="veh48" depart="548.21" from="-360934008#4" to="4059307#0" departLane="best" type="veh_passenger" departSpeed="max"/>
    <trip id="veh49" depart="559.63" from="505739792" to="913020667" departLane="best" type="veh_passenger" departSpeed="max"/>
    <trip id="veh50" depart="571.05" from="746410872#0" to="40606945" departLane="best" type="veh_passenger" departSpeed="max"/>
    <trip id="veh51" depart="582.47" from="279154263" to="-49932184#1" departLane="best" type="veh_passenger" departSpeed="max"/>
    <trip id="veh52" depart="593.89" from="-41588174#1" to="23163731" departLane="best" type="veh_passenger" departSpeed="max"/>
    <trip id="veh53" depart="605.32" from="746410866" to="-189241670#1" departLane="best" type="veh_passenger"/>
    <trip id="veh54" depart="616.74" from="1059707545" to="1006641971#1" departLane="best" type="veh_passenger"/>
    <trip id="veh55" depart="628.16" from="1112581129" to="3127740#0" departLane="best" type="veh_passenger"/>
    <trip id="veh56" depart="639.58" from="746410872#0" to="605078469#0" departLane="best" type="veh_passenger" departSpeed="max"/>
    <trip id="veh57" depart="651.00" from="3127740#0" to="1186049314" departLane="best" type="veh_passenger"/>
    <trip id="veh58" depart="662.42" from="770901750#0" to="17513379" departLane="best" type="veh_passenger" departSpeed="max"/>
    <trip id="veh59" depart="673.84" from="1065177555" to="-671964048" departLane="best" type="veh_passenger" departSpeed="max"/>
    <trip id="veh60" depart="685.26" from="825288052" to="-49932184#1" departLane="best" type="veh_passenger"/>
    <trip id="veh61" depart="696.68" from="-41588174#1" to="987343785#0" departLane="best" type="veh_passenger" departSpeed="max"/>
    <trip id="veh62" depart="708.11" from="4082616" to="1112581130" departLane="best" type="veh_passenger"/>
    <trip id="veh63" depart="719.53" from="-1245947684" to="687481231#0" departLane="best" type="veh_passenger"/>
    <trip id="veh64" depart="730.95" from="24936216" to="49934840#0" departLane="best" type="veh_passenger"/>
    <trip id="veh65" depart="742.37" from="1200987340" to="4253998#0" departLane="best" type="veh_passenger" departSpeed="max"/>
    <trip id="veh66" depart="753.79" from="837448601" to="758462268" departLane="best" type="veh_passenger"/>
    <trip id="veh67" depart="765.21" from="825288051" to="589640599" departLane="best" type="veh_passenger"/>
    <trip id="veh68" depart="776.63" from="303559648#0" to="884555186" departLane="best" type="veh_passenger"/>
    <trip id="veh69" depart="788.05" from="4257240" to="311804826" departLane="best" type="veh_passenger" departSpeed="max"/>
    <trip id="veh70" depart="799.47" from="1065177555" to="-587317657#1" departLane="best" type="veh_passenger" departSpeed="max"/>
    <trip id="veh71" depart="810.89" from="-4253998#1" to="-4256304" departLane="best" type="veh_passenger" departSpeed="max"/>
    <trip id="veh72" depart="822.32" from="4059308#2" to="1007655988" departLane="best" type="veh_passenger"/>
    <trip id="veh73" depart="833.74" from="884555189" to="837448595#0" departLane="best" type="veh_passenger"/>
    <trip id="veh74" depart="845.16" from="1112581130" to="31259042" departLane="best" type="veh_passenger"/>
    <trip id="veh75" depart="856.58" from="884555189" to="-49932184#1" departLane="best" type="veh_passenger"/>
    <trip id="veh76" depart="868.00" from="837448595#0" to="-884555189" departLane="best" type="veh_passenger"/>
    <trip id="veh77" depart="879.42" from="-306452416#4" to="-49934843#2" departLane="best" type="veh_passenger"/>
    <trip id="veh78" depart="890.84" from="-1065127941" to="201892583" departLane="best" type="veh_passenger" departSpeed="max"/>
    <trip id="veh79" depart="902.26" from="4059326#0" to="-1003519506" departLane="best" type="veh_passenger"/>
    <trip id="veh80" depart="913.68" from="1059707545" to="860776043#0" departLane="best" type="veh_passenger"/>
    <trip id="veh81" depart="925.11" from="26763531" to="1007519980" departLane="best" type="veh_passenger" departSpeed="max"/>
    <trip id="veh82" depart="936.53" from="306452424#0" to="-23163731" departLane="best" type="veh_passenger"/>
    <trip id="veh83" depart="947.95" from="-49934843#2" to="681757485" departLane="best" type="veh_passenger"/>
    <trip id="veh84" depart="959.37" from="1112581134" to="1340003587#0" departLane="best" type="veh_passenger"/>
    <trip id="veh85" depart="970.79" from="-4257237#1" to="1205368696" departLane="best" type="veh_passenger" departSpeed="max"/>
    <trip id="veh86" depart="982.21" from="746410872#0" to="1007519972" departLane="best" type="veh_passenger" departSpeed="max"/>
    <trip id="veh87" depart="993.63" from="841081307" to="-671964048" departLane="best" type="veh_passenger"/>
    <trip id="veh88" depart="1005.05" from="311804826" to="49934847" departLane="best" type="veh_passenger"/>
    <trip id="veh89" depart="1016.47" from="746410872#1" to="-49932184#1" departLane="best" type="veh_passenger"/>
    <trip id="veh90" depart="1027.89" from="996665162#0" to="4253988#0" departLane="best" type="veh_passenger"/>
    <trip id="veh91" depart="1039.32" from="-841065954" to="4082615#0" departLane="best" type="veh_passenger"/>
    <trip id="veh92" depart="1050.74" from="26763531" to="1007519972" departLane="best" type="veh_passenger" departSpeed="max"/>
    <trip id="veh93" depart="1062.16" from="-694562111#1" to="746410872#1" departLane="best" type="veh_passenger"/>
    <trip id="veh94" depart="1073.58" from="1112581131#0" to="-825288059" departLane="best" type="veh_passenger"/>
    <trip id="veh95" depart="1085.00" from="1065177555" to="-825288043" departLane="best" type="veh_passenger" departSpeed="max"/>
    <trip id="veh96" depart="1096.42" from="1065177555" to="-671964048" departLane="best" type="veh_passenger" departSpeed="max"/>
    <trip id="veh97" depart="1107.84" from="-4253988#2" to="589640599" departLane="best" type="veh_passenger" departSpeed="max"/>
    <trip id="veh98" depart="1119.26" from="-884555189" to="41588174#0" departLane="best" type="veh_passenger"/>
    <trip id="veh99" depart="1130.68" from="694562117" to="1340003587#0" departLane="best" type="veh_passenger"/>
    <trip id="veh100" depart="1142.11" from="38444000" to="17513379" departLane="best" type="veh_passenger"/>
    <trip id="veh101" depart="1153.53" from="4257240" to="561132269#0" departLane="best" type="veh_passenger" departSpeed="max"/>
    <trip id="veh102" depart="1164.95" from="49934825#0" to="825288054" departLane="best" type="veh_passenger"/>
    <trip id="veh103" depart="1176.37" from="1186049313#0" to="4253998#0" departLane="best" type="veh_passenger"/>
    <trip id="veh104" depart="1187.79" from="746410872#0" to="23163731" departLane="best" type="veh_passenger" departSpeed="max"/>
    <trip id="veh105" depart="1199.21" from="-4257237#1" to="303559639#0" departLane="best" type="veh_passenger" departSpeed="max"/>
    <trip id="veh106" depart="1210.63" from="746410872#0" to="-587315169#1" departLane="best" type="veh_passenger" departSpeed="max"/>
    <trip id="veh107" depart="1222.05" from="-4253998#1" to="3128349#0" departLane="best" type="veh_passenger" departSpeed="max"/>
    <trip id="veh108" depart="1233.47" from="26763531" to="1205368719" departLane="best" type="veh_passenger" departSpeed="max"/>
    <trip id="veh109" depart="1244.89" from="1112581133" to="884555186" departLane="best" type="veh_passenger"/>
    <trip id="veh110" depart="1256.32" from="-884555186" to="26834676" departLane="best" type="veh_passenger" departSpeed="max"/>
    <trip id="veh111" depart="1267.74" from="1065177555" to="884555184#0" departLane="best" type="veh_passenger" departSpeed="max"/>
    <trip id="veh112" depart="1279.16" from="4257239" to="314436317#0" departLane="best" type="veh_passenger" departSpeed="max"/>
    <trip id="veh113" depart="1290.58" from="747155719#0" to="-825515804" departLane="best" type="veh_passenger"/>
    <trip id="veh114" depart="1302.00" from="279154263" to="687481231#0" departLane="best" type="veh_passenger" departSpeed="max"/>
    <trip id="veh115" depart="1313.42" from="747155719#0" to="589640599" departLane="best" type="veh_passenger"/>
    <trip id="veh116" depart="1324.84" from="825288043" to="49934825#0" departLane="best" type="veh_passenger"/>
    <trip id="veh117" depart="1336.26" from="1065177555" to="881317812" departLane="best" type="veh_passenger" departSpeed="max"/>
    <trip id="veh118" depart="1347.68" from="1065177554#0" to="1100812341#0" departLane="best" type="veh_passenger"/>
    <trip id="veh119" depart="1359.11" from="884555174#0" to="-1112581137#1" departLane="best" type="veh_passenger"/>
    <trip id="veh120" depart="1370.53" from="837448601" to="681757485" departLane="best" type="veh_passenger"/>
    <trip id="veh121" depart="1381.95" from="-541926390#1" to="3127740#0" departLane="best" type="veh_passenger"/>
    <trip id="veh122" depart="1393.37" from="746410865" to="-884555174#1" departLane="best" type="veh_passenger"/>
    <trip id="veh123" depart="1404.79" from="1200987340" to="1205368709" departLane="best" type="veh_passenger" departSpeed="max"/>
    <trip id="veh124" depart="1416.21" from="1007519966" to="860776044#0" departLane="best" type="veh_passenger"/>
    <trip id="veh125" depart="1427.63" from="770901750#0" to="-837448601" departLane="best" type="veh_passenger" departSpeed="max"/>
    <trip id="veh126" depart="1439.05" from="-996665163" to="314895559" departLane="best" type="veh_passenger"/>
    <trip id="veh127" depart="1450.47" from="-4253988#2" to="-884555174#1" departLane="best" type="veh_passenger" departSpeed="max"/>
    <trip id="veh128" depart="1461.89" from="-41588157" to="4253998#0" departLane="best" type="veh_passenger"/>
    <trip id="veh129" depart="1473.32" from="694563843" to="235992910" departLane="best" type="veh_passenger"/>
    <trip id="veh130" depart="1484.74" from="4059307#0" to="1006641971#1" departLane="best" type="veh_passenger"/>
    <trip id="veh131" depart="1496.16" from="884555181" to="-306452416#4" departLane="best" type="veh_passenger"/>
    <trip id="veh132" depart="1507.58" from="-4253994#2" to="-49932184#1" departLane="best" type="veh_passenger" departSpeed="max"/>
    <trip id="veh133" depart="1519.00" from="485039787#0" to="237413929#0" departLane="best" type="veh_passenger"/>
    <trip id="veh134" depart="1530.42" from="-311804827#0" to="-587317657#1" departLane="best" type="veh_passenger"/>
    <trip id="veh135" depart="1541.84" from="1112581135" to="1006641971#0" departLane="best" type="veh_passenger"/>
    <trip id="veh136" depart="1553.26" from="1112581137#0" to="1059707542#0" departLane="best" type="veh_passenger" departSpeed="max"/>
    <trip id="veh137" depart="1564.68" from="-4253998#1" to="-671964048" departLane="best" type="veh_passenger" departSpeed="max"/>
    <trip id="veh138" depart="1576.11" from="-841081307" to="-1065127938" departLane="best" type="veh_passenger"/>
    <trip id="veh139" depart="1587.53" from="-4253998#1" to="306452424#0" departLane="best" type="veh_passenger" departSpeed="max"/>
    <trip id="veh140" depart="1598.95" from="1200989935#0" to="1340003587#0" departLane="best" type="veh_passenger"/>
    <trip id="veh141" depart="1610.37" from="1245946974" to="27188930" departLane="best" type="veh_passenger"/>
    <trip id="veh142" depart="1621.79" from="997309342#0" to="17929796#0" departLane="best" type="veh_passenger"/>
    <trip id="veh143" depart="1633.21" from="542832660#0" to="228569788" departLane="best" type="veh_passenger"/>
    <trip id="veh144" depart="1644.63" from="746410872#0" to="884555184#0" departLane="best" type="veh_passenger" departSpeed="max"/>
    <trip id="veh145" depart="1656.05" from="4257239" to="746410871" departLane="best" type="veh_passenger" departSpeed="max"/>
    <trip id="veh146" depart="1667.47" from="-884555178" to="1006641969" departLane="best" type="veh_passenger"/>
    <trip id="veh147" depart="1678.89" from="311804826" to="1007519979" departLane="best" type="veh_passenger"/>
    <trip id="veh148" depart="1690.32" from="1245947684" to="687481231#0" departLane="best" type="veh_passenger"/>
    <trip id="veh149" depart="1701.74" from="1007655988" to="987343785#0" departLane="best" type="veh_passenger"/>
    <trip id="veh150" depart="1713.16" from="758462267#0" to="49932187" departLane="best" type="veh_passenger"/>
    <trip id="veh151" depart="1724.58" from="746410872#0" to="-1065258328#2" departLane="best" type="veh_passenger" departSpeed="max"/>
    <trip id="veh152" depart="1736.00" from="26763531" to="-189241670#1" departLane="best" type="veh_passenger" departSpeed="max"/>
    <trip id="veh153" depart="1747.42" from="-996665163" to="40606945" departLane="best" type="veh_passenger"/>
    <trip id="veh154" depart="1758.84" from="-3087449#3" to="681757485" departLane="best" type="veh_passenger" departSpeed="max"/>
    <trip id="veh155" depart="1770.26" from="4059327#0" to="4082616" departLane="best" type="veh_passenger"/>
    <trip id="veh156" depart="1781.68" from="837448598" to="4059307#0" departLane="best" type="veh_passenger"/>
    <trip id="veh157" depart="1793.11" from="4257239" to="1200989935#0" departLane="best" type="veh_passenger" departSpeed="max"/>
    <trip id="veh158" depart="1804.53" from="825288054" to="24936216" departLane="best" type="veh_passenger"/>
    <trip id="veh159" depart="1815.95" from="-23163731" to="3128349#0" departLane="best" type="veh_passenger"/>
    <trip id="veh160" depart="1827.37" from="746410872#0" to="1245946974" departLane="best" type="veh_passenger" departSpeed="max"/>
    <trip id="veh161" depart="1838.79" from="4059308#2" to="-587317657#1" departLane="best" type="veh_passenger"/>
    <trip id="veh162" depart="1850.21" from="505739792" to="1340003587#0" departLane="best" type="veh_passenger" departSpeed="max"/>
    <trip id="veh163" depart="1861.63" from="747155719#0" to="987343785#0" departLane="best" type="veh_passenger"/>
    <trip id="veh164" depart="1873.05" from="4257239" to="-837448601" departLane="best" type="veh_passenger" departSpeed="max"/>
    <trip id="veh165" depart="1884.47" from="758462266#0" to="-4253995#1" departLane="best" type="veh_passenger"/>
    <trip id="veh166" depart="1895.89" from="-1186049314" to="687481231#0" departLane="best" type="veh_passenger"/>
    <trip id="veh167" depart="1907.32" from="-24936260#3" to="49932187" departLane="best" type="veh_passenger"/>
    <trip id="veh168" depart="1918.74" from="505739792" to="306452424#0" departLane="best" type="veh_passenger" departSpeed="max"/>
    <trip id="veh169" depart="1930.16" from="825288057" to="27188930" departLane="best" type="veh_passenger"/>
    <trip id="veh170" depart="1941.58" from="-746410871" to="589640599" departLane="best" type="veh_passenger"/>
    <trip id="veh171" depart="1953.00" from="-884555186" to="-825288043" departLane="best" type="veh_passenger" departSpeed="max"/>
    <trip id="veh172" depart="1964.42" from="-841081307" to="-587315169#1" departLane="best" type="veh_passenger"/>
    <trip id="veh173" depart="1975.84" from="-558255409#1" to="561132269#0" departLane="best" type="veh_passenger"/>
    <trip id="veh174" depart="1987.26" from="1112581130" to="-1003519506" departLane="best" type="veh_passenger"/>
    <trip id="veh175" depart="1998.68" from="837448598" to="-558255409#1" departLane="best" type="veh_passenger"/>
    <trip id="veh176" depart="2010.11" from="587317657#0" to="7970886" departLane="best" type="veh_passenger" departSpeed="max"/>
    <trip id="veh177" depart="2021.53" from="1112581139#0" to="-306452424#3" departLane="best" type="veh_passenger"/>
    <trip id="veh178" depart="2032.95" from="-837448598" to="-747155719#1" departLane="best" type="veh_passenger"/>
    <trip id="veh179" depart="2044.37" from="-1415942083#1" to="-747155719#1" departLane="best" type="veh_passenger"/>
    <trip id="veh180" depart="2055.79" from="884555178" to="1006641971#1" departLane="best" type="veh_passenger"/>
    <trip id="veh181" depart="2067.21" from="41588174#0" to="1100812341#0" departLane="best" type="veh_passenger"/>
    <trip id="veh182" depart="2078.63" from="1006630385" to="1112581130" departLane="best" type="veh_passenger"/>
    <trip id="veh183" depart="2090.05" from="825288051" to="-316158482#1" departLane="best" type="veh_passenger"/>
    <trip id="veh184" depart="2101.47" from="694563843" to="561132269#0" departLane="best" type="veh_passenger"/>
    <trip id="veh185" depart="2112.89" from="746410872#0" to="-316158482#1" departLane="best" type="veh_passenger" departSpeed="max"/>
    <trip id="veh186" depart="2124.32" from="746410872#0" to="-1062480575" departLane="best" type="veh_passenger" departSpeed="max"/>
    <trip id="veh187" depart="2135.74" from="1007519970" to="-671964048" departLane="best" type="veh_passenger"/>
    <trip id="veh188" depart="2147.16" from="-841081307" to="561132269#0" departLane="best" type="veh_passenger"/>
    <trip id="veh189" depart="2158.58" from="26763531" to="884555186" departLane="best" type="veh_passenger" departSpeed="max"/>
    <trip id="veh190" depart="2170.00" from="23163731" to="-189241670#1" departLane="best" type="veh_passenger"/>
    <trip id="veh191" depart="2181.42" from="-825288057" to="1007519972" departLane="best" type="veh_passenger"/>
    <trip id="veh192" depart="2192.84" from="-360934008#4" to="561132269#0" departLane="best" type="veh_passenger" departSpeed="max"/>
    <trip id="veh193" depart="2204.26" from="884555184#0" to="825288051" departLane="best" type="veh_passenger"/>
    <trip id="veh194" depart="2215.68" from="-1065127940" to="62036630" departLane="best" type="veh_passenger"/>
    <trip id="veh195" depart="2227.11" from="-823008428" to="-671964048" departLane="best" type="veh_passenger"/>
    <trip id="veh196" depart="2238.53" from="1059707545" to="747155719#0" departLane="best" type="veh_passenger"/>
    <trip id="veh197" depart="2249.95" from="746410872#0" to="587315169#0" departLane="best" type="veh_passenger" departSpeed="max"/>
    <trip id="veh198" depart="2261.37" from="-884555186" to="17929789" departLane="best" type="veh_passenger" departSpeed="max"/>
    <trip id="veh199" depart="2272.79" from="746410870" to="90247861" departLane="best" type="veh_passenger"/>
    <trip id="veh200" depart="2284.21" from="587315169#0" to="881317813" departLane="best" type="veh_passenger"/>
    <trip id="veh201" depart="2295.63" from="837448598" to="-671964048" departLane="best" type="veh_passenger"/>
    <trip id="veh202" depart="2307.05" from="49934825#0" to="4059307#0" departLane="best" type="veh_passenger"/>
    <trip id="veh203" depart="2318.47" from="1007655986" to="-837448598" departLane="best" type="veh_passenger"/>
    <trip id="veh204" depart="2329.89" from="49932184#0" to="-4256304" departLane="best" type="veh_passenger" departSpeed="max"/>
    <trip id="veh205" depart="2341.32" from="758462266#0" to="1007519979" departLane="best" type="veh_passenger"/>
    <trip id="veh206" depart="2352.74" from="-4253994#2" to="589640599" departLane="best" type="veh_passenger" departSpeed="max"/>
    <trip id="veh207" depart="2364.16" from="1200987340" to="-49932184#1" departLane="best" type="veh_passenger" departSpeed="max"/>
    <trip id="veh208" depart="2375.58" from="746410872#0" to="1205368718#0" departLane="best" type="veh_passenger" departSpeed="max"/>
    <trip id="veh209" depart="2387.00" from="770901750#0" to="-306452416#4" departLane="best" type="veh_passenger" departSpeed="max"/>
    <trip id="veh210" depart="2398.42" from="-41588174#1" to="4253998#0" departLane="best" type="veh_passenger" departSpeed="max"/>
    <trip id="veh211" depart="2409.84" from="4059327#0" to="31259042" departLane="best" type="veh_passenger"/>
    <trip id="veh212" depart="2421.26" from="-541926390#3" to="884555186" departLane="best" type="veh_passenger" departSpeed="max"/>
    <trip id="veh213" depart="2432.68" from="587317657#0" to="-675079978#3" departLane="best" type="veh_passenger" departSpeed="max"/>
    <trip id="veh214" depart="2444.11" from="1186049315" to="1112581139#0" departLane="best" type="veh_passenger"/>
    <trip id="veh215" depart="2455.53" from="-4253994#2" to="-189241670#1" departLane="best" type="veh_passenger" departSpeed="max"/>
    <trip id="veh216" depart="2466.95" from="-3087449#3" to="-747147375#3" departLane="best" type="veh_passenger" departSpeed="max"/>
    <trip id="veh217" depart="2478.37" from="881317813" to="589640599" departLane="best" type="veh_passenger"/>
    <trip id="veh218" depart="2489.79" from="-3087449#3" to="-189241670#1" departLane="best" type="veh_passenger" departSpeed="max"/>
    <trip id="veh219" depart="2501.21" from="-694562111#1" to="17929796#0" departLane="best" type="veh_passenger"/>
    <trip id="veh220" depart="2512.63" from="-825288057" to="884555186" departLane="best" type="veh_passenger"/>
    <trip id="veh221" depart="2524.05" from="-9616291" to="-589644425" departLane="best" type="veh_passenger"/>
    <trip id="veh222" depart="2535.47" from="1007655985" to="1100812341#0" departLane="best" type="veh_passenger"/>
    <trip id="veh223" depart="2546.89" from="-4257237#1" to="1006641969" departLane="best" type="veh_passenger" departSpeed="max"/>
    <trip id="veh224" depart="2558.32" from="189241670#0" to="-4256304" departLane="best" type="veh_passenger" departSpeed="max"/>
    <trip id="veh225" depart="2569.74" from="-841081307" to="1007519980" departLane="best" type="veh_passenger"/>
    <trip id="veh226" depart="2581.16" from="-1065127941" to="-837448598" departLane="best" type="veh_passenger" departSpeed="max"/>
    <trip id="veh227" depart="2592.58" from="-4253998#1" to="1033680852" departLane="best" type="veh_passenger" departSpeed="max"/>
    <trip id="veh228" depart="2604.00" from="841081307" to="-311804827#0" departLane="best" type="veh_passenger"/>
    <trip id="veh229" depart="2615.42" from="-541926390#3" to="-825515804" departLane="best" type="veh_passenger" departSpeed="max"/>
    <trip id="veh230" depart="2626.84" from="-884555178" to="49934825#0" departLane="best" type="veh_passenger"/>
    <trip id="veh231" depart="2638.26" from="1059707545" to="-189241670#1" departLane="best" type="veh_passenger"/>
    <trip id="veh232" depart="2649.68" from="4082616" to="49934840#0" departLane="best" type="veh_passenger"/>
    <trip id="veh233" depart="2661.11" from="-41588174#1" to="687481231#0" departLane="best" type="veh_passenger" departSpeed="max"/>
    <trip id="veh234" depart="2672.53" from="542832660#0" to="1340003587#0" departLane="best" type="veh_passenger"/>
    <trip id="veh235" depart="2683.95" from="41518102" to="1007519972" departLane="best" type="veh_passenger"/>
    <trip id="veh236" depart="2695.37" from="747155719#0" to="311804826" departLane="best" type="veh_passenger"/>