<?xml version="1.0" encoding="UTF-8"?>

<!-- generated on 2025-10-26 14:34:26.266522 by osmWebWizard.py v1_24_0+0000-b72eb3fabc8
<configuration>
    <net-file value="C:\Program Files (x86)\Eclipse\Sumo\tools\2025-10-26-14-34-17\osm.net.xml.gz"/>
    <output-trip-file value="C:\Program Files (x86)\Eclipse\Sumo\tools\2025-10-26-14-34-17\osm.bicycle.trips.xml"/>
    <route-file value="C:\Program Files (x86)\Eclipse\Sumo\tools\2025-10-26-14-34-17\osm.bicycle.rou.xml"/>
    <prefix value="bike"/>
    <trip-attributes value="departLane=&quot;best&quot;"/>
    <fringe-start-attributes value="departSpeed=&quot;max&quot;"/>
    <vehicle-class value="bicycle"/>
    <fringe-factor value="2"/>
    <edge-permission value="bicycle"/>
    <via-edge-types value="highway.motorway,highway.motorway_link,highway.trunk_link,highway.primary_link,highway.secondary_link,highway.tertiary_link"/>
    <max-distance value="8000.0"/>
    <remove-loops value="True"/>
    <insertion-density value="6.0"/>
</configuration>
-->

<routes xmlns:xsi="http://www.w3.org/2001/XMLSchema-instance" xsi:noNamespaceSchemaLocation="http://sumo.dlr.de/xsd/routes_file.xsd">
    <vType id="bike_bicycle" vClass="bicycle"/>
    <trip id="bike0" depart="0.00" from="311804827#1" to="-1065258328#2" departLane="best" type="bike_bicycle"/>
    <trip id="bike1" depart="23.91" from="7970886" to="-311804827#0" departLane="best" type="bike_bicycle"/>
    <trip id="bike2" depart="47.82" from="1065177554#0" to="-1112581137#1" departLane="best" type="bike_bicycle"/>
    <trip id="bike3" depart="71.73" from="-1065177554#1" to="-685020269#2" departLane="best" type="bike_bicycle"/>
    <trip id="bike4" depart="95.64" from="-694562111#1" to="303559639#3" departLane="best" type="bike_bicycle"/>
    <trip id="bike5" depart="119.54" from="-3087449#3" to="-3128255#1" departLane="best" type="bike_bicycle" departSpeed="max"/>
    <trip id="bike6" depart="143.45" from="746410866" to="3087449#0" departLane="best" type="bike_bicycle"/>
    <trip id="bike7" depart="167.36" from="1007655986" to="246170016" departLane="best" type="bike_bicycle"/>
    <trip id="bike8" depart="191.27" from="62036630" to="311804827#1" departLane="best" type="bike_bicycle"/>
    <trip id="bike9" depart="215.18" from="41518102" to="-1245947684" departLane="best" type="bike_bicycle"/>
    <trip id="bike10" depart="239.09" from="-746410870" to="-913020667" departLane="best" type="bike_bicycle"/>
    <trip id="bike11" depart="263.00" from="-311804827#1" to="-884555182" departLane="best" type="bike_bicycle"/>
    <trip id="bike12" depart="286.91" from="311804827#0" to="1007655987" departLane="best" type="bike_bicycle"/>
    <trip id="bike13" depart="310.82" from="-837448601" to="860776044#0" departLane="best" type="bike_bicycle"/>
    <trip id="bike14" depart="334.72" from="-4253998#1" to="1051341393" departLane="best" type="bike_bicycle" departSpeed="max"/>
    <trip id="bike15" depart="358.63" from="9616291" to="3241842" departLane="best" type="bike_bicycle"/>
    <trip id="bike16" depart="382.54" from="-746410870" to="-1112581137#1" departLane="best" type="bike_bicycle"/>
    <trip id="bike17" depart="406.45" from="-589644425" to="881317812" departLane="best" type="bike_bicycle"/>
    <trip id="bike18" depart="430.36" from="758462266#0" to="1006641966" departLane="best" type="bike_bicycle"/>
    <trip id="bike19" depart="454.27" from="825288051" to="1186049315" departLane="best" type="bike_bicycle"/>
    <trip id="bike20" depart="478.18" from="-837448601" to="-837448598" departLane="best" type="bike_bicycle"/>
    <trip id="bike21" depart="502.09" from="228569788" to="-851719171#1" departLane="best" type="bike_bicycle"/>
    <trip id="bike22" depart="526.00" from="1040323294" to="-747147375#3" departLane="best" type="bike_bicycle"/>
    <trip id="bike23" depart="549.90" from="-3087449#3" to="-1415942083#1" departLane="best" type="bike_bicycle" departSpeed="max"/>
    <trip id="bike24" depart="573.81" from="-3128255#3" to="3128255#2" departLane="best" type="bike_bicycle"/>
    <trip id="bike25" depart="597.72" from="-18309858#3" to="1051341393" departLane="best" type="bike_bicycle"/>
    <trip id="bike26" depart="621.63" from="996665163" to="17929796#0" departLane="best" type="bike_bicycle"/>
    <trip id="bike27" depart="645.54" from="884555182" to="747147372#0" departLane="best" type="bike_bicycle"/>
    <trip id="bike28" depart="669.45" from="-1062480575" to="4253998#0" departLane="best" type="bike_bicycle"/>
    <trip id="bike29" depart="693.36" from="4059308#2" to="23163731" departLane="best" type="bike_bicycle"/>
    <trip id="bike30" depart="717.27" from="-837448601" to="3241842" departLane="best" type="bike_bicycle"/>
    <trip id="bike31" depart="741.18" from="1112581137#0" to="884555181" departLane="best" type="bike_bicycle" departSpeed="max"/>
    <trip id="bike32" depart="765.08" from="825288043" to="758462266#0" departLane="best" type="bike_bicycle"/>
    <trip id="bike33" depart="788.99" from="-884555186" to="314895559" departLane="best" type="bike_bicycle" departSpeed="max"/>
    <trip id="bike34" depart="812.90" from="501243983" to="201892583" departLane="best" type="bike_bicycle"/>
    <trip id="bike35" depart="836.81" from="-1003519506" to="1006641971#1" departLane="best" type="bike_bicycle"/>
    <trip id="bike36" depart="860.72" from="-1065127941" to="851719169" departLane="best" type="bike_bicycle" departSpeed="max"/>
    <trip id="bike37" depart="884.63" from="758462266#0" to="884555174#0" departLane="best" type="bike_bicycle"/>
    <trip id="bike38" depart="908.54" from="-306452416#4" to="1211000762" departLane="best" type="bike_bicycle"/>
    <trip id="bike39" depart="932.45" from="-237413929#4" to="504568375#0" departLane="best" type="bike_bicycle"/>
    <trip id="bike40" depart="956.36" from="49934825#0" to="-4253995#1" departLane="best" type="bike_bicycle"/>
    <trip id="bike41" depart="980.26" from="1186049313#0" to="239761119" departLane="best" type="bike_bicycle"/>
    <trip id="bike42" depart="1004.17" from="-837448601" to="758462267#0" departLane="best" type="bike_bicycle"/>
    <trip id="bike43" depart="1028.08" from="1065177554#0" to="-746410870" departLane="best" type="bike_bicycle"/>
    <trip id="bike44" depart="1051.99" from="150133378#0" to="485039787#0" departLane="best" type="bike_bicycle"/>
    <trip id="bike45" depart="1075.90" from="-558255409#1" to="1006641964" departLane="best" type="bike_bicycle"/>
    <trip id="bike46" depart="1099.81" from="996665163" to="38444000" departLane="best" type="bike_bicycle"/>
    <trip id="bike47" depart="1123.72" from="-360934008#4" to="-823008428" departLane="best" type="bike_bicycle" departSpeed="max"/>
    <trip id="bike48" depart="1147.63" from="-746410870" to="-747155719#1" departLane="best" type="bike_bicycle"/>
    <trip id="bike49" depart="1171.54" from="-237413929#4" to="3128349#0" departLane="best" type="bike_bicycle"/>
    <trip id="bike50" depart="1195.44" from="-746410870" to="825288052" departLane="best" type="bike_bicycle"/>
    <trip id="bike51" depart="1219.35" from="746410872#0" to="-237413929#4" departLane="best" type="bike_bicycle" departSpeed="max"/>
    <trip id="bike52" depart="1243.26" from="-675079978#3" to="-4256304" departLane="best" type="bike_bicycle"/>
    <trip id="bike53" depart="1267.17" from="837448601" to="26834677#0" departLane="best" type="bike_bicycle"/>
    <trip id="bike54" depart="1291.08" from="-311804827#0" to="1112581138" departLane="best" type="bike_bicycle"/>
    <trip id="bike55" depart="1314.99" from="1065177554#0" to="1200989935#0" departLane="best" type="bike_bicycle"/>
    <trip id="bike56" depart="1338.90" from="1051341393" to="1007519979" departLane="best" type="bike_bicycle"/>
    <trip id="bike57" depart="1362.81" from="746410872#0" to="-837448601" departLane="best" type="bike_bicycle" departSpeed="max"/>
    <trip id="bike58" depart="1386.71" from="1065177554#0" to="-884555182" departLane="best" type="bike_bicycle"/>
    <trip id="bike59" depart="1410.62" from="-825288043" to="837448601" departLane="best" type="bike_bicycle"/>
    <trip id="bike60" depart="1434.53" from="17929793#0" to="-17513383#5" departLane="best" type="bike_bicycle"/>
    <trip id="bike61" depart="1458.44" from="1200987340" to="-746410871" departLane="best" type="bike_bicycle" departSpeed="max"/>
    <trip id="bike62" depart="1482.35" from="1040323294" to="-18309858#3" departLane="best" type="bike_bicycle"/>
    <trip id="bike63" depart="1506.26" from="1007655986" to="987343785#0" departLane="best" type="bike_bicycle"/>
    <trip id="bike64" depart="1530.17" from="-837448601" to="561132269#0" departLane="best" type="bike_bicycle"/>
    <trip id="bike65" depart="1554.08" from="-4253994#2" to="-996665163" departLane="best" type="bike_bicycle" departSpeed="max"/>
    <trip id="bike66" depart="1577.99" from="17513383#0" to="49934840#0" departLane="best" type="bike_bicycle"/>
    <trip id="bike67" depart="1601.89" from="-17513383#5" to="303559639#0" departLane="best" type="bike_bicycle"/>
    <trip id="bike68" depart="1625.80" from="1205368709" to="746410871" departLane="best" type="bike_bicycle"/>
    <trip id="bike69" depart="1649.71" from="770901750#0" to="-837448598" departLane="best" type="bike_bicycle" departSpeed="max"/>
    <trip id="bike70" depart="1673.62" from="26294450#0" to="311804827#1" departLane="best" type="bike_bicycle"/>
    <trip id="bike71" depart="1697.53" from="1065127939#0" to="303559639#0" departLane="best" type="bike_bicycle"/>
    <trip id="bike72" depart="1721.44" from="-567941579" to="4253998#0" departLane="best" type="bike_bicycle"/>
    <trip id="bike73" depart="1745.35" from="4059306#0" to="1003519506" departLane="best" type="bike_bicycle"/>
    <trip id="bike74" depart="1769.26" from="-24936260#3" to="1186049315" departLane="best" type="bike_bicycle"/>
    <trip id="bike75" depart="1793.17" from="-24936260#3" to="-746410870" departLane="best" type="bike_bicycle"/>
    <trip id="bike76" depart="1817.07" from="-837448601" to="860776043#0" departLane="best" type="bike_bicycle"/>
    <trip id="bike77" depart="1840.98" from="758462267#0" to="7970886" departLane="best" type="bike_bicycle"/>
    <trip id="bike78" depart="1864.89" from="675079978#0" to="4253988#0" departLane="best" type="bike_bicycle"/>
    <trip id="bike79" depart="1888.80" from="-41588157" to="-4059325#5" departLane="best" type="bike_bicycle"/>
    <trip id="bike80" depart="1912.71" from="1200987340" to="825288052" departLane="best" type="bike_bicycle" departSpeed="max"/>
    <trip id="bike81" depart="1936.62" from="746410865" to="-3127740#2" departLane="best" type="bike_bicycle"/>
    <trip id="bike82" depart="1960.53" from="1065177554#0" to="-884555182" departLane="best" type="bike_bicycle"/>
    <trip id="bike83" depart="1984.44" from="311804827#0" to="-851719171#1" departLane="best" type="bike_bicycle"/>
    <trip id="bike84" depart="2008.35" from="1100812341#0" to="-1062480575" departLane="best" type="bike_bicycle"/>
    <trip id="bike85" depart="2032.25" from="675079978#0" to="2876128#0" departLane="best" type="bike_bicycle"/>
    <trip id="bike86" depart="2056.16" from="-4253988#2" to="-4253995#1" departLane="best" type="bike_bicycle" departSpeed="max"/>
    <trip id="bike87" depart="2080.07" from="-825288043" to="-3128349#4" departLane="best" type="bike_bicycle"/>
    <trip id="bike88" depart="2103.98" from="1059707540#0" to="311804827#1" departLane="best" type="bike_bicycle"/>
    <trip id="bike89" depart="2127.89" from="-4253994#2" to="851719169" departLane="best" type="bike_bicycle" departSpeed="max"/>
    <trip id="bike90" depart="2151.80" from="746410872#1" to="90247861" departLane="best" type="bike_bicycle"/>
    <trip id="bike91" depart="2175.71" from="587317657#0" to="8173099" departLane="best" type="bike_bicycle" departSpeed="max"/>
    <trip id="bike92" depart="2199.62" from="-1065127941" to="49932186#0" departLane="best" type="bike_bicycle" departSpeed="max"/>
    <trip id="bike93" depart="2223.53" from="558255409#0" to="747147375#0" departLane="best" type="bike_bicycle"/>
    <trip id="bike94" depart="2247.43" from="505739792" to="-316158482#1" departLane="best" type="bike_bicycle" departSpeed="max"/>
    <trip id="bike95" depart="2271.34" from="-694562117" to="62036630" departLane="best" type="bike_bicycle"/>
    <trip id="bike96" depart="2295.25" from="1112581138" to="1006631257" departLane="best" type="bike_bicycle"/>
    <trip id="bike97" depart="2319.16" from="-1065127941" to="-671964048" departLane="best" type="bike_bicycle" departSpeed="max"/>
    <trip id="bike98" depart="2343.07" from="1006631257" to="747147375#0" departLane="best" type="bike_bicycle"/>
    <trip id="bike99" depart="2366.98" from="884555181" to="-884555184#1" departLane="best" type="bike_bicycle"/>
    <trip id="bike100" depart="2390.89" from="311804827#1" to="1065177554#0" departLane="best" type="bike_bicycle"/>
    <trip id="bike101" depart="2414.80" from="279154263" to="17513379" departLane="best" type="bike_bicycle" departSpeed="max"/>
    <trip id="bike102" depart="2438.71" from="-825288054" to="4253995#0" departLane="best" type="bike_bicycle"/>
    <trip id="bike103" depart="2462.61" from="38444000" to="1007519966" departLane="best" type="bike_bicycle"/>
    <trip id="bike104" depart="2486.52" from="1051341393" to="-996665163" departLane="best" type="bike_bicycle"/>
    <trip id="bike105" depart="2510.43" from="-884555186" to="237413929#0" departLane="best" type="bike_bicycle" departSpeed="max"/>
    <trip id="bike106" depart="2534.34" from="1100812341#0" to="2876128#0" departLane="best" type="bike_bicycle"/>
    <trip id="bike107" depart="2558.25" from="-306452416#4" to="17513383#0" departLane="best" type="bike_bicycle"/>
    <trip id="bike108" depart="2582.16" from="-747155719#1" to="1205368709" departLane="best" type="bike_bicycle"/>
    <trip id="bike109" depart="2606.07" from="746410866" to="-24936260#3" departLane="best" type="bike_bicycle"/>
    <trip id="bike110" depart="2629.98" from="1062480573#0" to="3128255#2" departLane="best" type="bike_bicycle"/>
    <trip id="bike111" depart="2653.89" from="1112581137#0" to="589640599" departLane="best" type="bike_bicycle" departSpeed="max"/>
    <trip id="bike112" depart="2677.79" from="405404511" to="987343785#0" departLane="best" type="bike_bicycle"/>
    <trip id="bike113" depart="2701.70" from="7970886" to="311804826" departLane="best" type="bike_bicycle"/>
    <trip id="bike114" depart="2725.61" from="62036630" to="237413929#0" departLane="best" type="bike_bicycle"/>
    <trip id="bike115" depart="2749.52" from="1186049313#0" to="-851719169" departLane="best" type="bike_bicycle"/>
    <trip id="bike116" depart="2773.43" from="49934825#0" to="17929793#0" departLane="best" type="bike_bicycle"/>
    <trip id="bike117" depart="2797.34" from="3087832#0" to="-884555178" departLane="best" type="bike_bicycle"/>
    <trip id="bike118" depart="2821.25" from="-746410871" to="41588157" departLane="best" type="bike_bicycle"/>
    <trip id="bike119" depart="2845.16" from="41518102" to="-189241670#1" departLane="best" type="bike_bicycle"/>
    <trip id="bike120" depart="2869.07" from="1059707540#0" to="236141635#0" departLane="best" type="bike_bicycle"/>
    <trip id="bike121" depart="2892.97" from="1062480573#0" to="-694562117" departLane="best" type="bike_bicycle"/>
    <trip id="bike122" depart="2916.88" from="1065127939#0" to="825288052" departLane="best" type="bike_bicycle"/>
    <trip id="bike123" depart="2940.79" from="1007655987" to="-1059707540#1" departLane="best" type="bike_bicycle"/>
    <trip id="bike124" depart="2964.70" from="1007519970" to="49934847" departLane="best" type="bike_bicycle"/>
    <trip id="bike125" depart="2988.61" from="746410870" to="884555181" departLane="best" type="bike_bicycle"/>
    <trip id="bike126" depart="3012.52" from="1065127939#0" to="49934840#0" departLane="best" type="bike_bicycle"/>
    <trip id="bike127" depart="3036.43" from="17929789" to="3087449#0" departLane="best" type="bike_bicycle"/>
    <trip id="bike128" depart="3060.34" from="-694562111#1" to="-747147375#3" departLane="best" type="bike_bicycle"/>
    <trip id="bike129" depart="3084.25" from="1112581130" to="-1112581137#1" departLane="best" type="bike_bicycle"/>
    <trip id="bike130" depart="3108.15" from="1112581141" to="-4253995#1" departLane="best" type="bike_bicycle"/>
    <trip id="bike131" depart="3132.06" from="306452416#0" to="-1100812341#1" departLane="best" type="bike_bicycle"/>
    <trip id="bike132" depart="3155.97" from="-41588157" to="1200989934" departLane="best" type="bike_bicycle"/>
    <trip id="bike133" depart="3179.88" from="-589644425" to="1006641971#1" departLane="best" type="bike_bicycle"/>
    <trip id="bike134" depart="3203.79" from="-825288043" to="-306452424#3" departLane="best" type="bike_bicycle"/>
    <trip id="bike135" depart="3227.70" from="-1065127941" to="235992910" departLane="best" type="bike_bicycle" departSpeed="max"/>
    <trip id="bike136" depart="3251.61" from="860776044#0" to="-685020269#2" departLane="best" type="bike_bicycle"/>
    <trip id="bike137" depart="3275.52" from="-1065127941" to="-49932184#1" departLane="best" type="bike_bicycle" departSpeed="max"/>
    <trip id="bike138" depart="3299.43" from="-4059325#5" to="4059325#0" departLane="best" type="bike_bicycle"/>
    <trip id="bike139" depart="3323.33" from="23163731" to="-747147375#3" departLane="best" type="bike_bicycle"/>
    <trip id="bike140" depart="3347.24" from="-4253998#1" to="3087832#0" departLane="best" type="bike_bicycle" departSpeed="max"/>
    <trip id="bike141" depart="3371.15" from="485039787#0" to="-4059325#5" departLane="best" type="bike_bicycle"/>
    <trip id="bike142" depart="3395.06" from="4253994#0" to="-303559648#5" departLane="best" type="bike_bicycle"/>
    <trip id="bike143" depart="3418.97" from="4059327#0" to="3128255#2" departLane="best" type="bike_bicycle"/>
    <trip id="bike144" depart="3442.88" from="746410866" to="3087449#0" departLane="best" type="bike_bicycle"/>
    <trip id="bike145" depart="3466.79" from="505739792" to="1007519984" departLane="best" type="bike_bicycle" departSpeed="max"/>
    <trip id="bike146" depart="3490.70" from="1100812341#0" to="1033680852" departLane="best" type="bike_bicycle"/>
    <trip id="bike147" depart="3514.61" from="746410866" to="681757478" departLane="best" type="bike_bicycle"/>
    <trip id="bike148" depart="3538.51" from="-3127740#2" to="884555184#0" departLane="best" type="bike_bicycle"/>
    <trip id="bike149" depart="3562.42" from="311804827#0" to="681757485" departLane="best" type="bike_bicycle"/>
    <trip id="bike150" depart="3586.33" from="41588157" to="1112581139#0" departLane="best" type="bike_bicycle"/>
</routes>
