<?xml version="1.0" encoding="UTF-8"?>

<!-- generated on 2025-10-26 14:34:27.592763 by osmWebWizard.py v1_24_0+0000-b72eb3fabc8
<configuration>
    <net-file value="C:\Program Files (x86)\Eclipse\Sumo\tools\2025-10-26-14-34-17\osm.net.xml.gz"/>
    <output-trip-file value="C:\Program Files (x86)\Eclipse\Sumo\tools\2025-10-26-14-34-17\osm.motorcycle.trips.xml"/>
    <route-file value="C:\Program Files (x86)\Eclipse\Sumo\tools\2025-10-26-14-34-17\osm.motorcycle.rou.xml"/>
    <prefix value="motorcycle"/>
    <trip-attributes value="departLane=&quot;best&quot;"/>
    <fringe-start-attributes value="departSpeed=&quot;max&quot;"/>
    <vehicle-class value="motorcycle"/>
    <fringe-factor value="2"/>
    <edge-permission value="motorcycle"/>
    <via-edge-types value="highway.motorway,highway.motorway_link,highway.trunk_link,highway.primary_link,highway.secondary_link,highway.tertiary_link"/>
    <seed value="44"/>
    <max-distance value="1200.0"/>
    <remove-loops value="True"/>
    <insertion-density value="4.0"/>
</configuration>
-->

<routes xmlns:xsi="http://www.w3.org/2001/XMLSchema-instance" xsi:noNamespaceSchemaLocation="http://sumo.dlr.de/xsd/routes_file.xsd">
    <vType id="motorcycle_motorcycle" vClass="motorcycle"/>
    <trip id="motorcycle0" depart="0.00" from="1062480573#0" to="236141635#0" departLane="best" type="motorcycle_motorcycle"/>
    <trip id="motorcycle1" depart="34.26" from="746410872#0" to="-587315169#1" departLane="best" type="motorcycle_motorcycle" departSpeed="max"/>
    <trip id="motorcycle2" depart="68.53" from="-746410870" to="-1112581137#1" departLane="best" type="motorcycle_motorcycle"/>
    <trip id="motorcycle3" depart="102.79" from="-360934008#4" to="-1059707545" departLane="best" type="motorcycle_motorcycle" departSpeed="max"/>
    <trip id="motorcycle4" depart="137.05" from="9616291" to="41518102" departLane="best" type="motorcycle_motorcycle"/>
    <trip id="motorcycle5" depart="171.32" from="4059326#0" to="1007519966" departLane="best" type="motorcycle_motorcycle"/>
    <trip id="motorcycle6" depart="205.58" from="-24936260#3" to="694562117" departLane="best" type="motorcycle_motorcycle"/>
    <trip id="motorcycle7" depart="239.84" from="-237413929#4" to="-3128255#1" departLane="best" type="motorcycle_motorcycle"/>
    <trip id="motorcycle8" depart="274.11" from="881317813" to="-316158482#1" departLane="best" type="motorcycle_motorcycle"/>
    <trip id="motorcycle9" depart="308.37" from="303559648#0" to="884555186" departLane="best" type="motorcycle_motorcycle"/>
    <trip id="motorcycle10" depart="342.63" from="-1186049313#1" to="1059707545" departLane="best" type="motorcycle_motorcycle"/>
    <trip id="motorcycle11" depart="376.89" from="1186049313#0" to="837448595#0" departLane="best" type="motorcycle_motorcycle"/>
    <trip id="motorcycle12" depart="411.16" from="-541926390#3" to="-851719171#1" departLane="best" type="motorcycle_motorcycle" departSpeed="max"/>
    <trip id="motorcycle13" depart="445.42" from="-825288043" to="-1415942083#1" departLane="best" type="motorcycle_motorcycle"/>
    <trip id="motorcycle14" depart="479.68" from="405404511" to="62036628" departLane="best" type="motorcycle_motorcycle"/>
    <trip id="motorcycle15" depart="513.95" from="1112581131#0" to="-1186049314" departLane="best" type="motorcycle_motorcycle"/>
    <trip id="motorcycle16" depart="548.21" from="41588157" to="49932186#0" departLane="best" type="motorcycle_motorcycle"/>
    <trip id="motorcycle17" depart="582.47" from="62036628" to="3128255#2" departLane="best" type="motorcycle_motorcycle"/>
    <trip id="motorcycle18" depart="616.74" from="24936260#0" to="236141635#0" departLane="best" type="motorcycle_motorcycle"/>
    <trip id="motorcycle19" depart="651.00" from="1007519970" to="62036630" departLane="best" type="motorcycle_motorcycle"/>
    <trip id="motorcycle20" depart="685.26" from="-1065127938" to="49934843#0" departLane="best" type="motorcycle_motorcycle"/>
    <trip id="motorcycle21" depart="719.53" from="311804827#1" to="236141635#0" departLane="best" type="motorcycle_motorcycle"/>
    <trip id="motorcycle22" depart="753.79" from="996665163" to="1007655985" departLane="best" type="motorcycle_motorcycle"/>
    <trip id="motorcycle23" depart="788.05" from="-558255409#1" to="-4059308#1" departLane="best" type="motorcycle_motorcycle"/>
    <trip id="motorcycle24" depart="822.32" from="26834677#0" to="-189241670#1" departLane="best" type="motorcycle_motorcycle"/>
    <trip id="motorcycle25" depart="856.58" from="1112581130" to="-1415942083#1" departLane="best" type="motorcycle_motorcycle"/>
    <trip id="motorcycle26" depart="890.84" from="303559648#0" to="-41588157" departLane="best" type="motorcycle_motorcycle"/>
    <trip id="motorcycle27" depart="925.11" from="675079978#0" to="31259042" departLane="best" type="motorcycle_motorcycle"/>
    <trip id="motorcycle28" depart="959.37" from="-884555186" to="3241842" departLane="best" type="motorcycle_motorcycle" departSpeed="max"/>
    <trip id="motorcycle29" depart="993.63" from="-851719169" to="-1059707545" departLane="best" type="motorcycle_motorcycle"/>
    <trip id="motorcycle30" depart="1027.89" from="-851719171#1" to="4082615#0" departLane="best" type="motorcycle_motorcycle"/>
    <trip id="motorcycle31" depart="1062.16" from="306452416#0" to="-675079978#3" departLane="best" type="motorcycle_motorcycle"/>
    <trip id="motorcycle32" depart="1096.42" from="694562117" to="681757485" departLane="best" type="motorcycle_motorcycle"/>
    <trip id="motorcycle33" depart="1130.68" from="-884555178" to="884555184#0" departLane="best" type="motorcycle_motorcycle"/>
    <trip id="motorcycle34" depart="1164.95" from="-837448601" to="-189241670#1" departLane="best" type="motorcycle_motorcycle"/>
    <trip id="motorcycle35" depart="1199.21" from="26763531" to="237413929#0" departLane="best" type="motorcycle_motorcycle" departSpeed="max"/>
    <trip id="motorcycle36" depart="1233.47" from="1200987340" to="-884555189" departLane="best" type="motorcycle_motorcycle" departSpeed="max"/>
    <trip id="motorcycle37" depart="1267.74" from="-884555189" to="1100812341#0" departLane="best" type="motorcycle_motorcycle"/>
    <trip id="motorcycle38" depart="1302.00" from="17929789" to="881317812" departLane="best" type="motorcycle_motorcycle"/>
    <trip id="motorcycle39" depart="1336.26" from="851719169" to="405404511" departLane="best" type="motorcycle_motorcycle"/>
    <trip id="motorcycle40" depart="1370.53" from="-306452416#4" to="825288051" departLane="best" type="motorcycle_motorcycle"/>
    <trip id="motorcycle41" depart="1404.79" from="1245947684" to="681757478" departLane="best" type="motorcycle_motorcycle"/>
    <trip id="motorcycle42" depart="1439.05" from="-823008428" to="41588174#0" departLane="best" type="motorcycle_motorcycle"/>
    <trip id="motorcycle43" depart="1473.32" from="-851719169" to="1112581131#0" departLane="best" type="motorcycle_motorcycle"/>
    <trip id="motorcycle44" depart="1507.58" from="-41588174#1" to="881317812" departLane="best" type="motorcycle_motorcycle" departSpeed="max"/>
    <trip id="motorcycle45" depart="1541.84" from="-825288054" to="-825288057" departLane="best" type="motorcycle_motorcycle"/>
    <trip id="motorcycle46" depart="1576.11" from="26763531" to="17929796#0" departLane="best" type="motorcycle_motorcycle" departSpeed="max"/>
    <trip id="motorcycle47" depart="1610.37" from="1006630385" to="1006641971#1" departLane="best" type="motorcycle_motorcycle"/>
    <trip id="motorcycle48" depart="1644.63" from="1200989935#0" to="825288054" departLane="best" type="motorcycle_motorcycle"/>
    <trip id="motorcycle49" depart="1678.89" from="542832662" to="1059707542#0" departLane="best" type="motorcycle_motorcycle"/>
    <trip id="motorcycle50" depart="1713.16" from="884555174#0" to="49932187" departLane="best" type="motorcycle_motorcycle"/>
    <trip id="motorcycle51" depart="1747.42" from="-694562117" to="4082616" departLane="best" type="motorcycle_motorcycle"/>
    <trip id="motorcycle52" depart="1781.68" from="4257235" to="-1059707540#1" departLane="best" type="motorcycle_motorcycle" departSpeed="max"/>
    <trip id="motorcycle53" depart="1815.95" from="-541926390#3" to="-1065127940" departLane="best" type="motorcycle_motorcycle" departSpeed="max"/>
    <trip id="motorcycle54" depart="1850.21" from="-4059308#1" to="1065127939#0" departLane="best" type="motorcycle_motorcycle"/>
    <trip id="motorcycle55" depart="1884.47" from="-987343785#1" to="-4253996#1" departLane="best" type="motorcycle_motorcycle" departSpeed="max"/>
    <trip id="motorcycle56" depart="1918.74" from="825288052" to="3128255#2" departLane="best" type="motorcycle_motorcycle"/>
    <trip id="motorcycle57" depart="1953.00" from="4059307#0" to="4082615#0" departLane="best" type="motorcycle_motorcycle"/>
    <trip id="motorcycle58" depart="1987.26" from="1006630385" to="306452424#0" departLane="best" type="motorcycle_motorcycle"/>
    <trip id="motorcycle59" depart="2021.53" from="1003519506" to="38444000" departLane="best" type="motorcycle_motorcycle"/>
    <trip id="motorcycle60" depart="2055.79" from="587317657#0" to="-1065127940" departLane="best" type="motorcycle_motorcycle" departSpeed="max"/>
    <trip id="motorcycle61" depart="2090.05" from="541926390#0" to="-4059326#2" departLane="best" type="motorcycle_motorcycle"/>
    <trip id="motorcycle62" depart="2124.32" from="-1065127940" to="-303559648#5" departLane="best" type="motorcycle_motorcycle"/>
    <trip id="motorcycle63" depart="2158.58" from="228569788" to="746410872#1" departLane="best" type="motorcycle_motorcycle"/>
    <trip id="motorcycle64" depart="2192.84" from="825288057" to="-49932186#2" departLane="best" type="motorcycle_motorcycle"/>
    <trip id="motorcycle65" depart="2227.11" from="1100812341#0" to="881317812" departLane="best" type="motorcycle_motorcycle"/>
    <trip id="motorcycle66" depart="2261.37" from="770901750#0" to="681757485" departLane="best" type="motorcycle_motorcycle" departSpeed="max"/>
    <trip id="motorcycle67" depart="2295.63" from="-825288043" to="-884555182" departLane="best" type="motorcycle_motorcycle"/>
    <trip id="motorcycle68" depart="2329.89" from="770901750#0" to="1205368709" departLane="best" type="motorcycle_motorcycle" departSpeed="max"/>
    <trip id="motorcycle69" depart="2364.16" from="505739792" to="4082615#0" departLane="best" type="motorcycle_motorcycle" departSpeed="max"/>
    <trip id="motorcycle70" depart="2398.42" from="758462266#0" to="1245947684" departLane="best" type="motorcycle_motorcycle"/>
    <trip id="motorcycle71" depart="2432.68" from="1007655988" to="1186049315" departLane="best" type="motorcycle_motorcycle"/>
    <trip id="motorcycle72" depart="2466.95" from="542832662" to="-884555184#1" departLane="best" type="motorcycle_motorcycle"/>
    <trip id="motorcycle73" depart="2501.21" from="-542832660#1" to="687481231#0" departLane="best" type="motorcycle_motorcycle"/>
    <trip id="motorcycle74" depart="2535.47" from="1186049314" to="314895559" departLane="best" type="motorcycle_motorcycle"/>
    <trip id="motorcycle75" depart="2569.74" from="-746410870" to="1112581138" departLane="best" type="motorcycle_motorcycle"/>
    <trip id="motorcycle76" depart="2604.00" from="-1100812341#1" to="-884555178" departLane="best" type="motorcycle_motorcycle"/>
    <trip id="motorcycle77" depart="2638.26" from="851719169" to="1112581140" departLane="best" type="motorcycle_motorcycle"/>
    <trip id="motorcycle78" depart="2672.53" from="-1059707540#1" to="589640599" departLane="best" type="motorcycle_motorcycle"/>
    <trip id="motorcycle79" depart="2706.79" from="-913020667" to="-567941579" departLane="best" type="motorcycle_motorcycle"/>
    <trip id="motorcycle80" depart="2741.05" from="31030" to="4059307#0" departLane="best" type="motorcycle_motorcycle"/>
    <trip id="motorcycle81" depart="2775.32" from="1006631257" to="4253994#0" departLane="best" type="motorcycle_motorcycle"/>
    <trip id="motorcycle82" depart="2809.58" from="747155719#0" to="1007519980" departLane="best" type="motorcycle_motorcycle"/>
    <trip id="motorcycle83" depart="2843.84" from="24936260#0" to="-996665163" departLane="best" type="motorcycle_motorcycle"/>
    <trip id="motorcycle84" depart="2878.11" from="1007519966" to="4059308#0" departLane="best" type="motorcycle_motorcycle"/>
    <trip id="motorcycle85" depart="2912.37" from="851719169" to="-558255409#1" departLane="best" type="motorcycle_motorcycle"/>
    <trip id="motorcycle86" depart="2946.63" from="542832660#0" to="1205368718#0" departLane="best" type="motorcycle_motorcycle"/>
    <trip id="motorcycle87" depart="2980.89" from="851719169" to="-24936260#3" departLane="best" type="motorcycle_motorcycle"/>
    <trip id="motorcycle88" depart="3015.16" from="884555174#0" to="-17513383#5" departLane="best" type="motorcycle_motorcycle"/>
    <trip id="motorcycle89" depart="3049.42" from="1200989935#0" to="881317812" departLane="best" type="motorcycle_motorcycle"/>
    <trip id="motorcycle90" depart="3083.68" from="758462268" to="228569788" departLane="best" type="motorcycle_motorcycle"/>
    <trip id="motorcycle91" depart="3117.95" from="-1065258328#2" to="-1062480575" departLane="best" type="motorcycle_motorcycle"/>
    <trip id="motorcycle92" depart="3152.21" from="311804826" to="-4059325#5" departLane="best" type="motorcycle_motorcycle"/>
    <trip id="motorcycle93" depart="3186.47" from="541926390#0" to="541926390#2" departLane="best" type="motorcycle_motorcycle"/>
    <trip id="motorcycle94" depart="3220.74" from="306452424#0" to="2876128#0" departLane="best" type="motorcycle_motorcycle"/>
    <trip id="motorcycle95" depart="3255.00" from="1112581130" to="4082616" departLane="best" type="motorcycle_motorcycle"/>
    <trip id="motorcycle96" depart="3289.26" from="24936260#0" to="4059325#0" departLane="best" type="motorcycle_motorcycle"/>
    <trip id="motorcycle97" depart="3323.53" from="825288057" to="9616291" departLane="best" type="motorcycle_motorcycle"/>
    <trip id="motorcycle98" depart="3357.79" from="1245947684" to="-4059325#5" departLane="best" type="motorcycle_motorcycle"/>
    <trip id="motorcycle99" depart="3392.05" from="-589644425" to="-851719169" departLane="best" type="motorcycle_motorcycle"/>
    <trip id="motorcycle100" depart="3426.32" from="-851719171#1" to="-825288057" departLane="best" type="motorcycle_motorcycle"/>
    <trip id="motorcycle101" depart="3460.58" from="-306452416#4" to="17513379" departLane="best" type="motorcycle_motorcycle"/>
    <trip id="motorcycle102" depart="3494.84" from="4059327#0" to="-1100812341#1" departLane="best" type="motorcycle_motorcycle"/>
    <trip id="motorcycle103" depart="3529.11" from="-542832660#1" to="-1065127938" departLane="best" type="motorcycle_motorcycle"/>
    <trip id="motorcycle104" depart="3563.37" from="4059327#0" to="1065258328#0" departLane="best" type="motorcycle_motorcycle"/>
    <trip id="motorcycle105" depart="3597.63" from="-1065127938" to="-837448601" departLane="best" type="motorcycle_motorcycle"/>
</routes>
