<?xml version="1.0" encoding="UTF-8"?>

<!-- generated on 2026-04-01 12:51:23.140138 by Eclipse SUMO randomTrips.py UNKNOWN
<configuration>
    <net-file value="../networks/extended/main.net.xml"/>
    <output-trip-file value="../routes/extended/eval/2/bicycle.trips.xml"/>
    <route-file value="../routes/extended/eval/2/bicycle.rou.xml"/>
    <prefix value="bicycle"/>
    <vehicle-class value="bicycle"/>
    <fringe-factor value="max"/>
    <seed value="2"/>
    <insertion-density value="100.0"/>
    <binomial value="100"/>
</configuration>
-->

<!-- generated on 2026-04-01T12:51:23.132178+00:00 by Eclipse SUMO duarouter 1.25.0
<duarouterConfiguration xmlns:xsi="http://www.w3.org/2001/XMLSchema-instance" xsi:noNamespaceSchemaLocation="http://sumo.dlr.de/xsd/duarouterConfiguration.xsd">

    <input>
        <net-file value="../networks/extended/main.net.xml"/>
        <route-files value="../routes/extended/eval/2/bicycle.trips.xml"/>
    </input>

    <output>
        <output-file value="../routes/extended/eval/2/bicycle.rou.xml"/>
        <alternatives-output value="NUL"/>
    </output>

    <time>
        <begin value="0"/>
        <end value="3600.0"/>
    </time>

    <report>
        <no-warnings value="true"/>
        <ignore-errors value="true"/>
        <no-step-log value="true"/>
    </report>

</duarouterConfiguration>
-->

<routes xmlns:xsi="http://www.w3.org/2001/XMLSchema-instance" xsi:noNamespaceSchemaLocation="http://sumo.dlr.de/xsd/routes_file.xsd">

</routes>
