<?xml version="1.0" encoding="UTF-8"?>

<!-- generated on 2026-02-02 18:57:50.223518 by Eclipse SUMO randomTrips.py UNKNOWN
<configuration>
    <net-file value="../networks/extended/main.net.xml"/>
    <output-trip-file value="../routes/extended/train/10000/bicycle.trips.xml"/>
    <route-file value="../routes/extended/train/10000/bicycle.rou.xml"/>
    <prefix value="bicycle"/>
    <vehicle-class value="bicycle"/>
    <fringe-factor value="max"/>
    <seed value="10000"/>
    <insertion-density value="100.0"/>
    <binomial value="100"/>
</configuration>
-->

<!-- generated on 2026-02-02T18:57:50.215668+00:00 by Eclipse SUMO duarouter 1.25.0
<duarouterConfiguration xmlns:xsi="http://www.w3.org/2001/XMLSchema-instance" xsi:noNamespaceSchemaLocation="http://sumo.dlr.de/xsd/duarouterConfiguration.xsd">

    <input>
        <net-file value="../networks/extended/main.net.xml"/>
        <route-files value="../routes/extended/train/10000/bicycle.trips.xml"/>
    </input>

    <output>
        <output-file value="../routes/extended/train/10000/bicycle.rou.xml"/>
        <alternatives-output value="NUL"/>
    </output>

    <time>
        <begin value="0"/>
        <end value="3600.0"/>
    </time>

    <report>
        <no-warnings value="true"/>
        <ignore-errors value="true"/>
        <no-step-log value="true"/>
    </report>

</duarouterConfiguration>
-->

<routes xmlns:xsi="http://www.w3.org/2001/XMLSchema-instance" xsi:noNamespaceSchemaLocation="http://sumo.dlr.de/xsd/routes_file.xsd">
    <vType id="bicycle_bicycle" vClass="bicycle"/>
    <vehicle id="bicycle0" type="bicycle_bicycle" depart="3.00">
        <route edges="UniSt_1_1 GowSt_2_3"/>
    </vehicle>
    <vehicle id="bicycle1" type="bicycle_bicycle" depart="6.00">
        <route edges="GowSt_2_1 TorPl_1_4 BynPl_1_1 BynPl_1_2 BynPl_1_3 BynPl_2_1 BynPl_2_2 BynPl_2_3 TorPl_2_1 GowSt_1_4"/>
    </vehicle>
    <vehicle id="bicycle2" type="bicycle_bicycle" depart="10.00">
        <route edges="GowSt_1_1 GowSt_1_2 GowSt_1_3 TorPl_1_4 BynPl_1_1 BynPl_1_2 BynPl_1_3 BynPl_2_1 BynPl_2_2 BynPl_2_3 TorPl_2_1 GowSt_2_2 GowSt_2_3"/>
    </vehicle>
    <vehicle id="bicycle3" type="bicycle_bicycle" depart="14.00">
        <route edges="UniSt_1_1 GowSt_1_3 GowSt_1_4"/>
    </vehicle>
    <vehicle id="bicycle4" type="bicycle_bicycle" depart="16.00">
        <route edges="UniSt_1_1 GowSt_1_3 TorPl_1_4 MalSt_1_1"/>
    </vehicle>
    <vehicle id="bicycle5" type="bicycle_bicycle" depart="19.00">
        <route edges="UniSt_1_1 GowSt_2_3"/>
    </vehicle>
    <vehicle id="bicycle6" type="bicycle_bicycle" depart="27.00">
        <route edges="UniSt_1_1 GowSt_1_3 TorPl_1_4 BynPl_1_1 BynPl_1_2 BynPl_1_3 GorSq_1_2 GorSq_1_3"/>
    </vehicle>
    <vehicle id="bicycle7" type="bicycle_bicycle" depart="31.00">
        <route edges="HunSt_1_1 TorPl_1_2 TorPl_1_3 GowSt_2_2 GowSt_2_3"/>
    </vehicle>
    <vehicle id="bicycle8" type="bicycle_bicycle" depart="32.00">
        <route edges="GorSq_1_1 BynPl_2_1 BynPl_2_2 BynPl_2_3 TorPl_2_1 GowSt_2_2 GowSt_2_3"/>
    </vehicle>
    <vehicle id="bicycle9" type="bicycle_bicycle" depart="45.00">
        <route edges="CheMe_1_1 TorPl_1_3 TorPl_1_4 MalSt_1_1"/>
    </vehicle>
    <vehicle id="bicycle10" type="bicycle_bicycle" depart="56.00">
        <route edges="CheMe_1_1 TorPl_1_3 TorPl_1_4 BynPl_1_1 BynPl_1_2 BynPl_1_3 GorSq_2_3"/>
    </vehicle>
    <vehicle id="bicycle11" type="bicycle_bicycle" depart="59.00">
        <route edges="GowSt_2_1 TorPl_1_4 BynPl_1_1 BynPl_1_2 BynPl_1_3 BynPl_2_1 BynPl_2_2 BynPl_2_3 TorPl_2_1 GowSt_1_4"/>
    </vehicle>
    <vehicle id="bicycle12" type="bicycle_bicycle" depart="87.00">
        <route edges="UniSt_1_1 GowSt_2_3"/>
    </vehicle>
    <vehicle id="bicycle13" type="bicycle_bicycle" depart="93.00">
        <route edges="GowSt_1_1 GowSt_1_2 GowSt_1_3 TorPl_1_4 BynPl_1_1 BynPl_1_2 BynPl_1_3 GorSq_1_2 GorSq_1_3"/>
    </vehicle>
    <vehicle id="bicycle14" type="bicycle_bicycle" depart="99.00">
        <route edges="RidGa_2_1 TorPl_1_3 TorPl_1_4 BynPl_1_1 BynPl_1_2 BynPl_1_3 GorSq_2_3"/>
    </vehicle>
    <vehicle id="bicycle15" type="bicycle_bicycle" depart="108.00">
        <route edges="HunSt_2_1 TorPl_1_2 TorPl_1_3 TorPl_1_4 BynPl_1_1 BynPl_1_2 BynPl_1_3 GorSq_2_3"/>
    </vehicle>
    <vehicle id="bicycle16" type="bicycle_bicycle" depart="117.00">
        <route edges="TorPl_1_1 TorPl_1_2 TorPl_1_3 TorPl_2_2 TorPl_2_3 TorPl_2_4"/>
    </vehicle>
    <vehicle id="bicycle17" type="bicycle_bicycle" depart="119.00">
        <route edges="TorPl_1_1 TorPl_1_2 TorPl_1_3 GowSt_1_4"/>
    </vehicle>
    <vehicle id="bicycle18" type="bicycle_bicycle" depart="138.00">
        <route edges="TorPl_1_1 TorPl_1_2 TorPl_1_3 TorPl_1_4 MalSt_1_1"/>
    </vehicle>
    <vehicle id="bicycle19" type="bicycle_bicycle" depart="138.00">
        <route edges="UniSt_1_1 GowSt_1_3 GowSt_1_4"/>
    </vehicle>
    <vehicle id="bicycle20" type="bicycle_bicycle" depart="144.00">
        <route edges="HunSt_1_1 TorPl_1_2 TorPl_1_3 GowSt_2_2 GowSt_2_3"/>
    </vehicle>
    <vehicle id="bicycle21" type="bicycle_bicycle" depart="149.00">
        <route edges="HunSt_1_1 TorPl_1_2 TorPl_1_3 TorPl_1_4 BynPl_1_1 BynPl_1_2 BynPl_1_3 GorSq_1_2 GorSq_1_3"/>
    </vehicle>
    <vehicle id="bicycle22" type="bicycle_bicycle" depart="157.00">
        <route edges="GorSq_1_1 BynPl_2_1 BynPl_2_2 BynPl_2_3 TorPl_2_1 TorPl_2_2 TorPl_2_3 TorPl_2_4"/>
    </vehicle>
    <vehicle id="bicycle23" type="bicycle_bicycle" depart="157.00">
        <route edges="CheMe_1_1 TorPl_1_3 TorPl_1_4 MalSt_1_1"/>
    </vehicle>
    <vehicle id="bicycle24" type="bicycle_bicycle" depart="158.00">
        <route edges="RidGa_2_1 TorPl_2_3 HunSt_1_2"/>
    </vehicle>
    <vehicle id="bicycle25" type="bicycle_bicycle" depart="164.00">
        <route edges="GowSt_2_1 TorPl_2_2 TorPl_2_3 TorPl_2_4"/>
    </vehicle>
    <vehicle id="bicycle26" type="bicycle_bicycle" depart="167.00">
        <route edges="GowSt_1_1 GowSt_1_2 GowSt_1_3 GowSt_1_4"/>
    </vehicle>
    <vehicle id="bicycle27" type="bicycle_bicycle" depart="173.00">
        <route edges="GorSq_2_1 GorSq_2_2 BynPl_2_1 BynPl_2_2 BynPl_2_3 TorPl_2_1 TorPl_2_2 TorPl_2_3 HunSt_1_2"/>
    </vehicle>
    <vehicle id="bicycle28" type="bicycle_bicycle" depart="177.00">
        <route edges="MalSt_2_1 TorPl_2_1 TorPl_2_2 TorPl_2_3 HunSt_1_2"/>
    </vehicle>
    <vehicle id="bicycle29" type="bicycle_bicycle" depart="180.00">
        <route edges="HunSt_1_1 HunSt_1_2"/>
    </vehicle>
    <vehicle id="bicycle30" type="bicycle_bicycle" depart="183.00">
        <route edges="CheMe_1_1 TorPl_1_3 GowSt_1_4"/>
    </vehicle>
    <vehicle id="bicycle31" type="bicycle_bicycle" depart="185.00">
        <route edges="MalSt_2_1 BynPl_1_1 BynPl_1_2 BynPl_1_3 GorSq_1_2 GorSq_1_3"/>
    </vehicle>
    <vehicle id="bicycle32" type="bicycle_bicycle" depart="189.00">
        <route edges="GorSq_1_1 BynPl_2_1 BynPl_2_2 BynPl_2_3 BynPl_1_1 BynPl_1_2 BynPl_1_3 GorSq_2_3"/>
    </vehicle>
    <vehicle id="bicycle33" type="bicycle_bicycle" depart="193.00">
        <route edges="GowSt_1_1 GowSt_1_2 GowSt_1_3 TorPl_1_4 BynPl_1_1 BynPl_1_2 BynPl_1_3 GorSq_1_2 GorSq_1_3"/>
    </vehicle>
    <vehicle id="bicycle34" type="bicycle_bicycle" depart="193.00">
        <route edges="HunSt_2_1 TorPl_1_2 TorPl_1_3 TorPl_2_2 TorPl_2_3 HunSt_1_2"/>
    </vehicle>
    <vehicle id="bicycle35" type="bicycle_bicycle" depart="201.00">
        <route edges="CheMe_1_1 TorPl_1_3 GowSt_2_2 GowSt_2_3"/>
    </vehicle>
    <vehicle id="bicycle36" type="bicycle_bicycle" depart="203.00">
        <route edges="TorPl_1_1 TorPl_1_2 TorPl_1_3 GowSt_1_4"/>
    </vehicle>
    <vehicle id="bicycle37" type="bicycle_bicycle" depart="204.00">
        <route edges="MalSt_2_1 TorPl_2_1 TorPl_2_2 TorPl_2_3 TorPl_2_4"/>
    </vehicle>
    <vehicle id="bicycle38" type="bicycle_bicycle" depart="212.00">
        <route edges="UniSt_1_1 GowSt_1_3 TorPl_2_2 TorPl_2_3 TorPl_2_4"/>
    </vehicle>
    <vehicle id="bicycle39" type="bicycle_bicycle" depart="216.00">
        <route edges="UniSt_1_1 GowSt_1_3 TorPl_2_2 TorPl_2_3 HunSt_1_2"/>
    </vehicle>
    <vehicle id="bicycle40" type="bicycle_bicycle" depart="224.00">
        <route edges="GorSq_1_1 BynPl_2_1 BynPl_2_2 BynPl_2_3 TorPl_2_1 GowSt_1_4"/>
    </vehicle>
    <vehicle id="bicycle41" type="bicycle_bicycle" depart="226.00">
        <route edges="UniSt_1_1 GowSt_2_3"/>
    </vehicle>
    <vehicle id="bicycle42" type="bicycle_bicycle" depart="227.00">
        <route edges="GowSt_1_1 GowSt_1_2 GowSt_1_3 TorPl_1_4 BynPl_1_1 BynPl_1_2 BynPl_1_3 BynPl_2_1 BynPl_2_2 BynPl_2_3 TorPl_2_1 GowSt_2_2 GowSt_2_3"/>
    </vehicle>
    <vehicle id="bicycle43" type="bicycle_bicycle" depart="227.00">
        <route edges="GowSt_1_1 GowSt_1_2 GowSt_1_3 TorPl_1_4 BynPl_1_1 BynPl_1_2 BynPl_1_3 GorSq_2_3"/>
    </vehicle>
    <vehicle id="bicycle44" type="bicycle_bicycle" depart="227.00">
        <route edges="CheMe_1_1 TorPl_1_3 TorPl_1_4 BynPl_1_1 BynPl_1_2 BynPl_1_3 GorSq_2_3"/>
    </vehicle>
    <vehicle id="bicycle45" type="bicycle_bicycle" depart="228.00">
        <route edges="MalSt_2_1 TorPl_2_1 TorPl_2_2 TorPl_2_3 HunSt_1_2"/>
    </vehicle>
    <vehicle id="bicycle46" type="bicycle_bicycle" depart="228.00">
        <route edges="GowSt_2_1 TorPl_1_4 BynPl_1_1 BynPl_1_2 BynPl_1_3 BynPl_2_1 BynPl_2_2 BynPl_2_3 TorPl_2_1 GowSt_1_4"/>
    </vehicle>
    <vehicle id="bicycle47" type="bicycle_bicycle" depart="231.00">
        <route edges="HunSt_1_1 TorPl_1_2 TorPl_1_3 TorPl_1_4 BynPl_1_1 BynPl_1_2 BynPl_1_3 GorSq_1_2 GorSq_1_3"/>
    </vehicle>
    <vehicle id="bicycle48" type="bicycle_bicycle" depart="250.00">
        <route edges="TorPl_1_1 TorPl_1_2 TorPl_1_3 TorPl_1_4 MalSt_1_1"/>
    </vehicle>
    <vehicle id="bicycle49" type="bicycle_bicycle" depart="254.00">
        <route edges="CheMe_1_1 TorPl_1_3 TorPl_1_4 MalSt_1_1"/>
    </vehicle>
    <vehicle id="bicycle50" type="bicycle_bicycle" depart="256.00">
        <route edges="HunSt_1_1 TorPl_1_2 TorPl_1_3 TorPl_1_4 BynPl_1_1 BynPl_1_2 BynPl_1_3 GorSq_2_3"/>
    </vehicle>
    <vehicle id="bicycle51" type="bicycle_bicycle" depart="277.00">
        <route edges="RidGa_2_1 TorPl_1_3 TorPl_1_4 MalSt_1_1"/>
    </vehicle>
    <vehicle id="bicycle52" type="bicycle_bicycle" depart="284.00">
        <route edges="TorPl_1_1 TorPl_1_2 TorPl_1_3 TorPl_1_4 BynPl_1_1 BynPl_1_2 BynPl_1_3 GorSq_1_2 GorSq_1_3"/>
    </vehicle>
    <vehicle id="bicycle53" type="bicycle_bicycle" depart="286.00">
        <route edges="RidGa_2_1 TorPl_1_3 GowSt_2_2 GowSt_2_3"/>
    </vehicle>
    <vehicle id="bicycle54" type="bicycle_bicycle" depart="289.00">
        <route edges="TorPl_1_1 TorPl_1_2 TorPl_1_3 TorPl_1_4 BynPl_1_1 BynPl_1_2 BynPl_1_3 GorSq_2_3"/>
    </vehicle>
    <vehicle id="bicycle55" type="bicycle_bicycle" depart="290.00">
        <route edges="GorSq_1_1 GorSq_1_2 GorSq_1_3"/>
    </vehicle>
    <vehicle id="bicycle56" type="bicycle_bicycle" depart="292.00">
        <route edges="HunSt_1_1 TorPl_1_2 TorPl_1_3 GowSt_2_2 GowSt_2_3"/>
    </vehicle>
    <vehicle id="bicycle57" type="bicycle_bicycle" depart="292.00">
        <route edges="GowSt_2_1 TorPl_1_4 BynPl_1_1 BynPl_1_2 BynPl_1_3 GorSq_2_3"/>
    </vehicle>
    <vehicle id="bicycle58" type="bicycle_bicycle" depart="295.00">
        <route edges="CheMe_1_1 TorPl_1_3 TorPl_1_4 MalSt_1_1"/>
    </vehicle>
    <vehicle id="bicycle59" type="bicycle_bicycle" depart="303.00">
        <route edges="HunSt_1_1 HunSt_1_2"/>
    </vehicle>
    <vehicle id="bicycle60" type="bicycle_bicycle" depart="310.00">
        <route edges="GorSq_1_1 BynPl_2_1 BynPl_2_2 BynPl_2_3 MalSt_1_1"/>
    </vehicle>
    <vehicle id="bicycle61" type="bicycle_bicycle" depart="315.00">
        <route edges="RidGa_2_1 TorPl_1_3 GowSt_1_4"/>
    </vehicle>
    <vehicle id="bicycle62" type="bicycle_bicycle" depart="320.00">
        <route edges="HunSt_1_1 TorPl_2_4"/>
    </vehicle>
    <vehicle id="bicycle63" type="bicycle_bicycle" depart="332.00">
        <route edges="CheMe_1_1 TorPl_1_3 GowSt_1_4"/>
    </vehicle>
    <vehicle id="bicycle64" type="bicycle_bicycle" depart="337.00">
        <route edges="CheMe_1_1 TorPl_1_3 TorPl_1_4 MalSt_1_1"/>
    </vehicle>
    <vehicle id="bicycle65" type="bicycle_bicycle" depart="367.00">
        <route edges="HunSt_2_1 TorPl_1_2 TorPl_1_3 TorPl_1_4 BynPl_1_1 BynPl_1_2 BynPl_1_3 GorSq_2_3"/>
    </vehicle>
    <vehicle id="bicycle66" type="bicycle_bicycle" depart="370.00">
        <route edges="GowSt_1_1 GowSt_1_2 GowSt_1_3 TorPl_1_4 BynPl_1_1 BynPl_1_2 BynPl_1_3 GorSq_1_2 GorSq_1_3"/>
    </vehicle>
    <vehicle id="bicycle67" type="bicycle_bicycle" depart="383.00">
        <route edges="RidGa_2_1 TorPl_1_3 TorPl_1_4 BynPl_1_1 BynPl_1_2 BynPl_1_3 GorSq_1_2 GorSq_1_3"/>
    </vehicle>
    <vehicle id="bicycle68" type="bicycle_bicycle" depart="407.00">
        <route edges="HunSt_2_1 TorPl_2_4"/>
    </vehicle>
    <vehicle id="bicycle69" type="bicycle_bicycle" depart="409.00">
        <route edges="GowSt_2_1 GowSt_2_2 GowSt_2_3"/>
    </vehicle>
    <vehicle id="bicycle70" type="bicycle_bicycle" depart="411.00">
        <route edges="HunSt_2_1 TorPl_2_4"/>
    </vehicle>
    <vehicle id="bicycle71" type="bicycle_bicycle" depart="416.00">
        <route edges="GorSq_1_1 BynPl_2_1 BynPl_2_2 BynPl_2_3 TorPl_2_1 GowSt_1_4"/>
    </vehicle>
    <vehicle id="bicycle72" type="bicycle_bicycle" depart="425.00">
        <route edges="UniSt_1_1 GowSt_2_3"/>
    </vehicle>
    <vehicle id="bicycle73" type="bicycle_bicycle" depart="437.00">
        <route edges="RidGa_2_1 TorPl_1_3 GowSt_2_2 GowSt_2_3"/>
    </vehicle>
    <vehicle id="bicycle74" type="bicycle_bicycle" depart="440.00">
        <route edges="CheMe_1_1 TorPl_2_3 TorPl_2_4"/>
    </vehicle>
    <vehicle id="bicycle75" type="bicycle_bicycle" depart="449.00">
        <route edges="TorPl_1_1 TorPl_1_2 TorPl_1_3 TorPl_1_4 BynPl_1_1 BynPl_1_2 BynPl_1_3 GorSq_2_3"/>
    </vehicle>
    <vehicle id="bicycle76" type="bicycle_bicycle" depart="460.00">
        <route edges="UniSt_1_1 GowSt_1_3 GowSt_1_4"/>
    </vehicle>
    <vehicle id="bicycle77" type="bicycle_bicycle" depart="461.00">
        <route edges="MalSt_2_1 BynPl_1_1 BynPl_1_2 BynPl_1_3 GorSq_1_2 GorSq_1_3"/>
    </vehicle>
    <vehicle id="bicycle78" type="bicycle_bicycle" depart="471.00">
        <route edges="CheMe_1_1 TorPl_2_3 TorPl_2_4"/>
    </vehicle>
    <vehicle id="bicycle79" type="bicycle_bicycle" depart="474.00">
        <route edges="GorSq_2_1 GorSq_2_2 GorSq_1_2 GorSq_1_3"/>
    </vehicle>
    <vehicle id="bicycle80" type="bicycle_bicycle" depart="478.00">
        <route edges="GorSq_1_1 BynPl_2_1 BynPl_2_2 BynPl_2_3 TorPl_2_1 GowSt_2_2 GowSt_2_3"/>
    </vehicle>
    <vehicle id="bicycle81" type="bicycle_bicycle" depart="489.00">
        <route edges="HunSt_2_1 TorPl_1_2 TorPl_1_3 TorPl_2_2 TorPl_2_3 HunSt_1_2"/>
    </vehicle>
    <vehicle id="bicycle82" type="bicycle_bicycle" depart="491.00">
        <route edges="GorSq_1_1 BynPl_2_1 BynPl_2_2 BynPl_2_3 MalSt_1_1"/>
    </vehicle>
    <vehicle id="bicycle83" type="bicycle_bicycle" depart="492.00">
        <route edges="GowSt_2_1 TorPl_1_4 BynPl_1_1 BynPl_1_2 BynPl_1_3 GorSq_2_3"/>
    </vehicle>
    <vehicle id="bicycle84" type="bicycle_bicycle" depart="511.00">
        <route edges="RidGa_2_1 TorPl_1_3 TorPl_1_4 BynPl_1_1 BynPl_1_2 BynPl_1_3 GorSq_2_3"/>
    </vehicle>
    <vehicle id="bicycle85" type="bicycle_bicycle" depart="515.00">
        <route edges="TorPl_1_1 TorPl_1_2 TorPl_1_3 GowSt_2_2 GowSt_2_3"/>
    </vehicle>
    <vehicle id="bicycle86" type="bicycle_bicycle" depart="520.00">
        <route edges="MalSt_2_1 TorPl_2_1 GowSt_2_2 GowSt_2_3"/>
    </vehicle>
    <vehicle id="bicycle87" type="bicycle_bicycle" depart="528.00">
        <route edges="GowSt_1_1 GowSt_1_2 GowSt_1_3 GowSt_1_4"/>
    </vehicle>
    <vehicle id="bicycle88" type="bicycle_bicycle" depart="535.00">
        <route edges="RidGa_2_1 TorPl_1_3 GowSt_2_2 GowSt_2_3"/>
    </vehicle>
    <vehicle id="bicycle89" type="bicycle_bicycle" depart="537.00">
        <route edges="GowSt_1_1 GowSt_1_2 GowSt_1_3 TorPl_2_2 TorPl_2_3 TorPl_2_4"/>
    </vehicle>
    <vehicle id="bicycle90" type="bicycle_bicycle" depart="539.00">
        <route edges="MalSt_2_1 BynPl_1_1 BynPl_1_2 BynPl_1_3 GorSq_2_3"/>
    </vehicle>
    <vehicle id="bicycle91" type="bicycle_bicycle" depart="545.00">
        <route edges="HunSt_2_1 TorPl_1_2 TorPl_1_3 TorPl_1_4 MalSt_1_1"/>
    </vehicle>
    <vehicle id="bicycle92" type="bicycle_bicycle" depart="556.00">
        <route edges="TorPl_1_1 TorPl_1_2 TorPl_1_3 GowSt_1_4"/>
    </vehicle>
    <vehicle id="bicycle93" type="bicycle_bicycle" depart="566.00">
        <route edges="GowSt_2_1 TorPl_1_4 MalSt_1_1"/>
    </vehicle>
    <vehicle id="bicycle94" type="bicycle_bicycle" depart="570.00">
        <route edges="TorPl_1_1 TorPl_1_2 TorPl_1_3 TorPl_1_4 MalSt_1_1"/>
    </vehicle>
    <vehicle id="bicycle95" type="bicycle_bicycle" depart="570.00">
        <route edges="CheMe_1_1 TorPl_2_3 TorPl_2_4"/>
    </vehicle>
    <vehicle id="bicycle96" type="bicycle_bicycle" depart="573.00">
        <route edges="GorSq_1_1 BynPl_2_1 BynPl_2_2 BynPl_2_3 BynPl_1_1 BynPl_1_2 BynPl_1_3 GorSq_2_3"/>
    </vehicle>
    <vehicle id="bicycle97" type="bicycle_bicycle" depart="577.00">
        <route edges="GorSq_2_1 GorSq_2_2 GorSq_2_3"/>
    </vehicle>
    <vehicle id="bicycle98" type="bicycle_bicycle" depart="577.00">
        <route edges="GowSt_2_1 TorPl_1_4 BynPl_1_1 BynPl_1_2 BynPl_1_3 GorSq_2_3"/>
    </vehicle>
    <vehicle id="bicycle99" type="bicycle_bicycle" depart="589.00">
        <route edges="UniSt_1_1 GowSt_1_3 TorPl_1_4 MalSt_1_1"/>
    </vehicle>
    <vehicle id="bicycle100" type="bicycle_bicycle" depart="591.00">
        <route edges="CheMe_1_1 TorPl_2_3 TorPl_2_4"/>
    </vehicle>
    <vehicle id="bicycle101" type="bicycle_bicycle" depart="597.00">
        <route edges="HunSt_1_1 TorPl_1_2 TorPl_1_3 GowSt_1_4"/>
    </vehicle>
    <vehicle id="bicycle102" type="bicycle_bicycle" depart="598.00">
        <route edges="GorSq_2_1 GorSq_2_2 GorSq_1_2 GorSq_1_3"/>
    </vehicle>
    <vehicle id="bicycle103" type="bicycle_bicycle" depart="598.00">
        <route edges="CheMe_1_1 TorPl_1_3 TorPl_1_4 BynPl_1_1 BynPl_1_2 BynPl_1_3 GorSq_2_3"/>
    </vehicle>
    <vehicle id="bicycle104" type="bicycle_bicycle" depart="604.00">
        <route edges="GorSq_2_1 GorSq_2_2 BynPl_2_1 BynPl_2_2 BynPl_2_3 MalSt_1_1"/>
    </vehicle>
    <vehicle id="bicycle105" type="bicycle_bicycle" depart="609.00">
        <route edges="HunSt_1_1 HunSt_1_2"/>
    </vehicle>
    <vehicle id="bicycle106" type="bicycle_bicycle" depart="617.00">
        <route edges="GowSt_1_1 GowSt_1_2 GowSt_1_3 TorPl_1_4 BynPl_1_1 BynPl_1_2 BynPl_1_3 BynPl_2_1 BynPl_2_2 BynPl_2_3 TorPl_2_1 GowSt_2_2 GowSt_2_3"/>
    </vehicle>
    <vehicle id="bicycle107" type="bicycle_bicycle" depart="619.00">
        <route edges="GowSt_1_1 GowSt_1_2 GowSt_1_3 GowSt_1_4"/>
    </vehicle>
    <vehicle id="bicycle108" type="bicycle_bicycle" depart="621.00">
        <route edges="RidGa_2_1 TorPl_2_3 HunSt_1_2"/>
    </vehicle>
    <vehicle id="bicycle109" type="bicycle_bicycle" depart="633.00">
        <route edges="HunSt_2_1 TorPl_1_2 TorPl_1_3 TorPl_2_2 TorPl_2_3 HunSt_1_2"/>
    </vehicle>
    <vehicle id="bicycle110" type="bicycle_bicycle" depart="633.00">
        <route edges="GowSt_1_1 GowSt_1_2 GowSt_1_3 TorPl_1_4 BynPl_1_1 BynPl_1_2 BynPl_1_3 GorSq_2_3"/>
    </vehicle>
    <vehicle id="bicycle111" type="bicycle_bicycle" depart="634.00">
        <route edges="MalSt_2_1 BynPl_1_1 BynPl_1_2 BynPl_1_3 GorSq_2_3"/>
    </vehicle>
    <vehicle id="bicycle112" type="bicycle_bicycle" depart="660.00">
        <route edges="GowSt_1_1 GowSt_1_2 GowSt_1_3 TorPl_1_4 BynPl_1_1 BynPl_1_2 BynPl_1_3 GorSq_1_2 GorSq_1_3"/>
    </vehicle>
    <vehicle id="bicycle113" type="bicycle_bicycle" depart="673.00">
        <route edges="GowSt_1_1 GowSt_1_2 GowSt_1_3 TorPl_2_2 TorPl_2_3 HunSt_1_2"/>
    </vehicle>
    <vehicle id="bicycle114" type="bicycle_bicycle" depart="678.00">
        <route edges="CheMe_1_1 TorPl_2_3 HunSt_1_2"/>
    </vehicle>
    <vehicle id="bicycle115" type="bicycle_bicycle" depart="679.00">
        <route edges="TorPl_1_1 TorPl_1_2 TorPl_1_3 TorPl_1_4 BynPl_1_1 BynPl_1_2 BynPl_1_3 GorSq_1_2 GorSq_1_3"/>
    </vehicle>
    <vehicle id="bicycle116" type="bicycle_bicycle" depart="683.00">
        <route edges="GorSq_1_1 BynPl_2_1 BynPl_2_2 BynPl_2_3 BynPl_1_1 BynPl_1_2 BynPl_1_3 GorSq_2_3"/>
    </vehicle>
    <vehicle id="bicycle117" type="bicycle_bicycle" depart="684.00">
        <route edges="MalSt_2_1 TorPl_2_1 TorPl_2_2 TorPl_2_3 TorPl_2_4"/>
    </vehicle>
    <vehicle id="bicycle118" type="bicycle_bicycle" depart="684.00">
        <route edges="GowSt_2_1 TorPl_2_2 TorPl_2_3 HunSt_1_2"/>
    </vehicle>
    <vehicle id="bicycle119" type="bicycle_bicycle" depart="686.00">
        <route edges="UniSt_1_1 GowSt_1_3 TorPl_1_4 BynPl_1_1 BynPl_1_2 BynPl_1_3 GorSq_2_3"/>
    </vehicle>
    <vehicle id="bicycle120" type="bicycle_bicycle" depart="699.00">
        <route edges="GowSt_1_1 GowSt_1_2 GowSt_1_3 TorPl_2_2 TorPl_2_3 HunSt_1_2"/>
    </vehicle>
    <vehicle id="bicycle121" type="bicycle_bicycle" depart="706.00">
        <route edges="UniSt_1_1 GowSt_2_3"/>
    </vehicle>
    <vehicle id="bicycle122" type="bicycle_bicycle" depart="712.00">
        <route edges="CheMe_1_1 TorPl_2_3 HunSt_1_2"/>
    </vehicle>
    <vehicle id="bicycle123" type="bicycle_bicycle" depart="715.00">
        <route edges="CheMe_1_1 TorPl_1_3 TorPl_1_4 BynPl_1_1 BynPl_1_2 BynPl_1_3 GorSq_2_3"/>
    </vehicle>
    <vehicle id="bicycle124" type="bicycle_bicycle" depart="716.00">
        <route edges="HunSt_1_1 TorPl_1_2 TorPl_1_3 GowSt_2_2 GowSt_2_3"/>
    </vehicle>
    <vehicle id="bicycle125" type="bicycle_bicycle" depart="717.00">
        <route edges="HunSt_1_1 TorPl_1_2 TorPl_1_3 TorPl_1_4 BynPl_1_1 BynPl_1_2 BynPl_1_3 GorSq_1_2 GorSq_1_3"/>
    </vehicle>
    <vehicle id="bicycle126" type="bicycle_bicycle" depart="720.00">
        <route edges="GowSt_2_1 TorPl_1_4 BynPl_1_1 BynPl_1_2 BynPl_1_3 BynPl_2_1 BynPl_2_2 BynPl_2_3 TorPl_2_1 GowSt_1_4"/>
    </vehicle>
    <vehicle id="bicycle127" type="bicycle_bicycle" depart="723.00">
        <route edges="MalSt_2_1 BynPl_1_1 BynPl_1_2 BynPl_1_3 GorSq_2_3"/>
    </vehicle>
    <vehicle id="bicycle128" type="bicycle_bicycle" depart="734.00">
        <route edges="HunSt_1_1 TorPl_2_4"/>
    </vehicle>
    <vehicle id="bicycle129" type="bicycle_bicycle" depart="744.00">
        <route edges="GorSq_2_1 GorSq_2_2 GorSq_2_3"/>
    </vehicle>
    <vehicle id="bicycle130" type="bicycle_bicycle" depart="755.00">
        <route edges="TorPl_1_1 TorPl_1_2 TorPl_1_3 GowSt_1_4"/>
    </vehicle>
    <vehicle id="bicycle131" type="bicycle_bicycle" depart="756.00">
        <route edges="GorSq_1_1 BynPl_2_1 BynPl_2_2 BynPl_2_3 TorPl_2_1 GowSt_2_2 GowSt_2_3"/>
    </vehicle>
    <vehicle id="bicycle132" type="bicycle_bicycle" depart="765.00">
        <route edges="TorPl_1_1 TorPl_1_2 TorPl_1_3 TorPl_1_4 BynPl_1_1 BynPl_1_2 BynPl_1_3 GorSq_2_3"/>
    </vehicle>
    <vehicle id="bicycle133" type="bicycle_bicycle" depart="768.00">
        <route edges="RidGa_2_1 TorPl_2_3 HunSt_1_2"/>
    </vehicle>
    <vehicle id="bicycle134" type="bicycle_bicycle" depart="768.00">
        <route edges="CheMe_1_1 TorPl_1_3 TorPl_1_4 MalSt_1_1"/>
    </vehicle>
    <vehicle id="bicycle135" type="bicycle_bicycle" depart="772.00">
        <route edges="CheMe_1_1 TorPl_1_3 GowSt_1_4"/>
    </vehicle>
    <vehicle id="bicycle136" type="bicycle_bicycle" depart="773.00">
        <route edges="GowSt_1_1 GowSt_1_2 GowSt_1_3 TorPl_1_4 BynPl_1_1 BynPl_1_2 BynPl_1_3 BynPl_2_1 BynPl_2_2 BynPl_2_3 TorPl_2_1 GowSt_2_2 GowSt_2_3"/>
    </vehicle>
    <vehicle id="bicycle137" type="bicycle_bicycle" depart="773.00">
        <route edges="GowSt_1_1 GowSt_1_2 GowSt_1_3 TorPl_2_2 TorPl_2_3 HunSt_1_2"/>
    </vehicle>
    <vehicle id="bicycle138" type="bicycle_bicycle" depart="779.00">
        <route edges="RidGa_2_1 TorPl_2_3 TorPl_2_4"/>
    </vehicle>
    <vehicle id="bicycle139" type="bicycle_bicycle" depart="784.00">
        <route edges="HunSt_1_1 HunSt_1_2"/>
    </vehicle>
    <vehicle id="bicycle140" type="bicycle_bicycle" depart="794.00">
        <route edges="MalSt_2_1 TorPl_2_1 GowSt_2_2 GowSt_2_3"/>
    </vehicle>
    <vehicle id="bicycle141" type="bicycle_bicycle" depart="805.00">
        <route edges="GorSq_2_1 GorSq_2_2 BynPl_2_1 BynPl_2_2 BynPl_2_3 TorPl_2_1 TorPl_2_2 TorPl_2_3 TorPl_2_4"/>
    </vehicle>
    <vehicle id="bicycle142" type="bicycle_bicycle" depart="832.00">
        <route edges="RidGa_2_1 TorPl_1_3 GowSt_2_2 GowSt_2_3"/>
    </vehicle>
    <vehicle id="bicycle143" type="bicycle_bicycle" depart="852.00">
        <route edges="GorSq_1_1 BynPl_2_1 BynPl_2_2 BynPl_2_3 TorPl_2_1 TorPl_2_2 TorPl_2_3 TorPl_2_4"/>
    </vehicle>
    <vehicle id="bicycle144" type="bicycle_bicycle" depart="857.00">
        <route edges="HunSt_2_1 TorPl_1_2 TorPl_1_3 GowSt_2_2 GowSt_2_3"/>
    </vehicle>
    <vehicle id="bicycle145" type="bicycle_bicycle" depart="880.00">
        <route edges="GowSt_1_1 GowSt_1_2 GowSt_1_3 TorPl_1_4 BynPl_1_1 BynPl_1_2 BynPl_1_3 GorSq_1_2 GorSq_1_3"/>
    </vehicle>
    <vehicle id="bicycle146" type="bicycle_bicycle" depart="891.00">
        <route edges="GowSt_1_1 GowSt_1_2 GowSt_1_3 TorPl_1_4 BynPl_1_1 BynPl_1_2 BynPl_1_3 BynPl_2_1 BynPl_2_2 BynPl_2_3 TorPl_2_1 GowSt_2_2 GowSt_2_3"/>
    </vehicle>
    <vehicle id="bicycle147" type="bicycle_bicycle" depart="895.00">
        <route edges="GorSq_2_1 GorSq_2_2 BynPl_2_1 BynPl_2_2 BynPl_2_3 TorPl_2_1 TorPl_2_2 TorPl_2_3 TorPl_2_4"/>
    </vehicle>
    <vehicle id="bicycle148" type="bicycle_bicycle" depart="902.00">
        <route edges="GowSt_2_1 TorPl_1_4 BynPl_1_1 BynPl_1_2 BynPl_1_3 GorSq_1_2 GorSq_1_3"/>
    </vehicle>
    <vehicle id="bicycle149" type="bicycle_bicycle" depart="907.00">
        <route edges="TorPl_1_1 TorPl_1_2 TorPl_1_3 GowSt_2_2 GowSt_2_3"/>
    </vehicle>
    <vehicle id="bicycle150" type="bicycle_bicycle" depart="908.00">
        <route edges="GowSt_1_1 GowSt_1_2 GowSt_1_3 TorPl_1_4 BynPl_1_1 BynPl_1_2 BynPl_1_3 BynPl_2_1 BynPl_2_2 BynPl_2_3 TorPl_2_1 GowSt_2_2 GowSt_2_3"/>
    </vehicle>
    <vehicle id="bicycle151" type="bicycle_bicycle" depart="910.00">
        <route edges="TorPl_1_1 HunSt_1_2"/>
    </vehicle>
    <vehicle id="bicycle152" type="bicycle_bicycle" depart="914.00">
        <route edges="HunSt_2_1 TorPl_1_2 TorPl_1_3 TorPl_1_4 BynPl_1_1 BynPl_1_2 BynPl_1_3 GorSq_2_3"/>
    </vehicle>
    <vehicle id="bicycle153" type="bicycle_bicycle" depart="919.00">
        <route edges="HunSt_1_1 TorPl_1_2 TorPl_1_3 TorPl_1_4 BynPl_1_1 BynPl_1_2 BynPl_1_3 GorSq_1_2 GorSq_1_3"/>
    </vehicle>
    <vehicle id="bicycle154" type="bicycle_bicycle" depart="924.00">
        <route edges="MalSt_2_1 BynPl_1_1 BynPl_1_2 BynPl_1_3 GorSq_2_3"/>
    </vehicle>
    <vehicle id="bicycle155" type="bicycle_bicycle" depart="926.00">
        <route edges="TorPl_1_1 TorPl_1_2 TorPl_1_3 GowSt_1_4"/>
    </vehicle>
    <vehicle id="bicycle156" type="bicycle_bicycle" depart="928.00">
        <route edges="HunSt_1_1 TorPl_2_4"/>
    </vehicle>
    <vehicle id="bicycle157" type="bicycle_bicycle" depart="928.00">
        <route edges="TorPl_1_1 TorPl_1_2 TorPl_1_3 TorPl_1_4 MalSt_1_1"/>
    </vehicle>
    <vehicle id="bicycle158" type="bicycle_bicycle" depart="929.00">
        <route edges="HunSt_1_1 TorPl_1_2 TorPl_1_3 TorPl_1_4 BynPl_1_1 BynPl_1_2 BynPl_1_3 GorSq_2_3"/>
    </vehicle>
    <vehicle id="bicycle159" type="bicycle_bicycle" depart="929.00">
        <route edges="CheMe_1_1 TorPl_1_3 GowSt_2_2 GowSt_2_3"/>
    </vehicle>
    <vehicle id="bicycle160" type="bicycle_bicycle" depart="929.00">
        <route edges="CheMe_1_1 TorPl_1_3 GowSt_1_4"/>
    </vehicle>
    <vehicle id="bicycle161" type="bicycle_bicycle" depart="930.00">
        <route edges="GowSt_2_1 GowSt_2_2 GowSt_2_3"/>
    </vehicle>
    <vehicle id="bicycle162" type="bicycle_bicycle" depart="942.00">
        <route edges="UniSt_1_1 GowSt_1_3 TorPl_1_4 MalSt_1_1"/>
    </vehicle>
    <vehicle id="bicycle163" type="bicycle_bicycle" depart="948.00">
        <route edges="GowSt_2_1 TorPl_1_4 BynPl_1_1 BynPl_1_2 BynPl_1_3 BynPl_2_1 BynPl_2_2 BynPl_2_3 TorPl_2_1 GowSt_1_4"/>
    </vehicle>
    <vehicle id="bicycle164" type="bicycle_bicycle" depart="957.00">
        <route edges="GowSt_1_1 GowSt_1_2 GowSt_1_3 TorPl_1_4 BynPl_1_1 BynPl_1_2 BynPl_1_3 GorSq_2_3"/>
    </vehicle>
    <vehicle id="bicycle165" type="bicycle_bicycle" depart="959.00">
        <route edges="CheMe_1_1 TorPl_2_3 HunSt_1_2"/>
    </vehicle>
    <vehicle id="bicycle166" type="bicycle_bicycle" depart="960.00">
        <route edges="GowSt_1_1 GowSt_1_2 GowSt_1_3 TorPl_2_2 TorPl_2_3 HunSt_1_2"/>
    </vehicle>
    <vehicle id="bicycle167" type="bicycle_bicycle" depart="971.00">
        <route edges="GorSq_2_1 GorSq_2_2 GorSq_2_3"/>
    </vehicle>
    <vehicle id="bicycle168" type="bicycle_bicycle" depart="974.00">
        <route edges="GowSt_2_1 TorPl_2_2 TorPl_2_3 TorPl_2_4"/>
    </vehicle>
    <vehicle id="bicycle169" type="bicycle_bicycle" depart="976.00">
        <route edges="GorSq_1_1 BynPl_2_1 BynPl_2_2 BynPl_2_3 TorPl_2_1 TorPl_2_2 TorPl_2_3 HunSt_1_2"/>
    </vehicle>
    <vehicle id="bicycle170" type="bicycle_bicycle" depart="978.00">
        <route edges="TorPl_1_1 HunSt_1_2"/>
    </vehicle>
    <vehicle id="bicycle171" type="bicycle_bicycle" depart="979.00">
        <route edges="MalSt_2_1 BynPl_1_1 BynPl_1_2 BynPl_1_3 GorSq_1_2 GorSq_1_3"/>
    </vehicle>
    <vehicle id="bicycle172" type="bicycle_bicycle" depart="984.00">
        <route edges="GowSt_2_1 TorPl_2_2 TorPl_2_3 TorPl_2_4"/>
    </vehicle>
    <vehicle id="bicycle173" type="bicycle_bicycle" depart="991.00">
        <route edges="UniSt_1_1 GowSt_2_3"/>
    </vehicle>