<?xml version="1.0" encoding="UTF-8"?>

<!-- generated on 2026-02-02 17:15:21.371978 by Eclipse SUMO randomTrips.py UNKNOWN
<configuration>
    <net-file value="../networks/extended/main.net.xml"/>
    <output-trip-file value="../routes/extended/train/6173/bicycle.trips.xml"/>
    <route-file value="../routes/extended/train/6173/bicycle.rou.xml"/>
    <prefix value="bicycle"/>
    <vehicle-class value="bicycle"/>
    <fringe-factor value="max"/>
    <seed value="6173"/>
    <insertion-density value="100.0"/>
    <binomial value="100"/>
</configuration>
-->

<!-- generated on 2026-02-02T17:15:21.364585+00:00 by Eclipse SUMO duarouter 1.25.0
<duarouterConfiguration xmlns:xsi="http://www.w3.org/2001/XMLSchema-instance" xsi:noNamespaceSchemaLocation="http://sumo.dlr.de/xsd/duarouterConfiguration.xsd">

    <input>
        <net-file value="../networks/extended/main.net.xml"/>
        <route-files value="../routes/extended/train/6173/bicycle.trips.xml"/>
    </input>

    <output>
        <output-file value="../routes/extended/train/6173/bicycle.rou.xml"/>
        <alternatives-output value="NUL"/>
    </output>

    <time>
        <begin value="0"/>
        <end value="3600.0"/>
    </time>

    <report>
        <no-warnings value="true"/>
        <ignore-errors value="true"/>
        <no-step-log value="true"/>
    </report>

</duarouterConfiguration>
-->

<routes xmlns:xsi="http://www.w3.org/2001/XMLSchema-instance" xsi:noNamespaceSchemaLocation="http://sumo.dlr.de/xsd/routes_file.xsd">
    <vType id="bicycle_bicycle" vClass="bicycle"/>
    <vehicle id="bicycle0" type="bicycle_bicycle" depart="1.00">
        <route edges="UniSt_1_1 GowSt_2_3"/>
    </vehicle>
    <vehicle id="bicycle1" type="bicycle_bicycle" depart="2.00">
        <route edges="HunSt_1_1 TorPl_1_2 TorPl_1_3 GowSt_2_2 GowSt_2_3"/>
    </vehicle>
    <vehicle id="bicycle2" type="bicycle_bicycle" depart="6.00">
        <route edges="TorPl_1_1 TorPl_1_2 TorPl_1_3 TorPl_1_4 BynPl_1_1 BynPl_1_2 BynPl_1_3 GorSq_1_2 GorSq_1_3"/>
    </vehicle>
    <vehicle id="bicycle3" type="bicycle_bicycle" depart="8.00">
        <route edges="GowSt_2_1 GowSt_2_2 GowSt_2_3"/>
    </vehicle>
    <vehicle id="bicycle4" type="bicycle_bicycle" depart="15.00">
        <route edges="HunSt_2_1 TorPl_1_2 TorPl_1_3 TorPl_1_4 BynPl_1_1 BynPl_1_2 BynPl_1_3 GorSq_1_2 GorSq_1_3"/>
    </vehicle>
    <vehicle id="bicycle5" type="bicycle_bicycle" depart="26.00">
        <route edges="UniSt_1_1 GowSt_1_3 TorPl_1_4 BynPl_1_1 BynPl_1_2 BynPl_1_3 GorSq_2_3"/>
    </vehicle>
    <vehicle id="bicycle6" type="bicycle_bicycle" depart="29.00">
        <route edges="RidGa_2_1 TorPl_1_3 TorPl_1_4 BynPl_1_1 BynPl_1_2 BynPl_1_3 GorSq_2_3"/>
    </vehicle>
    <vehicle id="bicycle7" type="bicycle_bicycle" depart="49.00">
        <route edges="RidGa_2_1 TorPl_1_3 TorPl_1_4 BynPl_1_1 BynPl_1_2 BynPl_1_3 GorSq_2_3"/>
    </vehicle>
    <vehicle id="bicycle8" type="bicycle_bicycle" depart="58.00">
        <route edges="GowSt_2_1 TorPl_2_2 TorPl_2_3 TorPl_2_4"/>
    </vehicle>
    <vehicle id="bicycle9" type="bicycle_bicycle" depart="60.00">
        <route edges="RidGa_2_1 TorPl_2_3 HunSt_1_2"/>
    </vehicle>
    <vehicle id="bicycle10" type="bicycle_bicycle" depart="75.00">
        <route edges="UniSt_1_1 GowSt_1_3 TorPl_1_4 BynPl_1_1 BynPl_1_2 BynPl_1_3 GorSq_2_3"/>
    </vehicle>
    <vehicle id="bicycle11" type="bicycle_bicycle" depart="103.00">
        <route edges="GorSq_1_1 BynPl_2_1 BynPl_2_2 BynPl_2_3 MalSt_1_1"/>
    </vehicle>
    <vehicle id="bicycle12" type="bicycle_bicycle" depart="105.00">
        <route edges="RidGa_2_1 TorPl_1_3 TorPl_1_4 BynPl_1_1 BynPl_1_2 BynPl_1_3 GorSq_1_2 GorSq_1_3"/>
    </vehicle>
    <vehicle id="bicycle13" type="bicycle_bicycle" depart="110.00">
        <route edges="GowSt_2_1 TorPl_2_2 TorPl_2_3 TorPl_2_4"/>
    </vehicle>
    <vehicle id="bicycle14" type="bicycle_bicycle" depart="111.00">
        <route edges="GowSt_2_1 TorPl_2_2 TorPl_2_3 TorPl_2_4"/>
    </vehicle>
    <vehicle id="bicycle15" type="bicycle_bicycle" depart="119.00">
        <route edges="HunSt_1_1 TorPl_1_2 TorPl_1_3 GowSt_2_2 GowSt_2_3"/>
    </vehicle>
    <vehicle id="bicycle16" type="bicycle_bicycle" depart="144.00">
        <route edges="HunSt_2_1 TorPl_1_2 TorPl_1_3 GowSt_2_2 GowSt_2_3"/>
    </vehicle>
    <vehicle id="bicycle17" type="bicycle_bicycle" depart="149.00">
        <route edges="GorSq_2_1 GorSq_2_2 BynPl_2_1 BynPl_2_2 BynPl_2_3 MalSt_1_1"/>
    </vehicle>
    <vehicle id="bicycle18" type="bicycle_bicycle" depart="153.00">
        <route edges="UniSt_1_1 GowSt_1_3 GowSt_1_4"/>
    </vehicle>
    <vehicle id="bicycle19" type="bicycle_bicycle" depart="154.00">
        <route edges="MalSt_2_1 BynPl_1_1 BynPl_1_2 BynPl_1_3 GorSq_2_3"/>
    </vehicle>
    <vehicle id="bicycle20" type="bicycle_bicycle" depart="160.00">
        <route edges="RidGa_2_1 TorPl_1_3 GowSt_1_4"/>
    </vehicle>
    <vehicle id="bicycle21" type="bicycle_bicycle" depart="163.00">
        <route edges="GowSt_1_1 GowSt_1_2 GowSt_1_3 TorPl_1_4 BynPl_1_1 BynPl_1_2 BynPl_1_3 GorSq_2_3"/>
    </vehicle>
    <vehicle id="bicycle22" type="bicycle_bicycle" depart="183.00">
        <route edges="TorPl_1_1 TorPl_1_2 TorPl_1_3 GowSt_2_2 GowSt_2_3"/>
    </vehicle>
    <vehicle id="bicycle23" type="bicycle_bicycle" depart="186.00">
        <route edges="RidGa_2_1 TorPl_1_3 GowSt_1_4"/>
    </vehicle>
    <vehicle id="bicycle24" type="bicycle_bicycle" depart="188.00">
        <route edges="GowSt_2_1 TorPl_2_2 TorPl_2_3 TorPl_2_4"/>
    </vehicle>
    <vehicle id="bicycle25" type="bicycle_bicycle" depart="196.00">
        <route edges="HunSt_1_1 HunSt_1_2"/>
    </vehicle>
    <vehicle id="bicycle26" type="bicycle_bicycle" depart="197.00">
        <route edges="MalSt_2_1 BynPl_1_1 BynPl_1_2 BynPl_1_3 GorSq_2_3"/>
    </vehicle>
    <vehicle id="bicycle27" type="bicycle_bicycle" depart="202.00">
        <route edges="GorSq_2_1 GorSq_2_2 GorSq_2_3"/>
    </vehicle>
    <vehicle id="bicycle28" type="bicycle_bicycle" depart="203.00">
        <route edges="UniSt_1_1 GowSt_2_3"/>
    </vehicle>
    <vehicle id="bicycle29" type="bicycle_bicycle" depart="214.00">
        <route edges="HunSt_2_1 TorPl_1_2 TorPl_1_3 TorPl_1_4 BynPl_1_1 BynPl_1_2 BynPl_1_3 GorSq_1_2 GorSq_1_3"/>
    </vehicle>
    <vehicle id="bicycle30" type="bicycle_bicycle" depart="222.00">
        <route edges="HunSt_2_1 TorPl_1_2 TorPl_1_3 TorPl_1_4 MalSt_1_1"/>
    </vehicle>
    <vehicle id="bicycle31" type="bicycle_bicycle" depart="245.00">
        <route edges="GorSq_2_1 GorSq_2_2 GorSq_2_3"/>
    </vehicle>
    <vehicle id="bicycle32" type="bicycle_bicycle" depart="250.00">
        <route edges="GorSq_2_1 GorSq_2_2 BynPl_2_1 BynPl_2_2 BynPl_2_3 TorPl_2_1 GowSt_2_2 GowSt_2_3"/>
    </vehicle>
    <vehicle id="bicycle33" type="bicycle_bicycle" depart="252.00">
        <route edges="HunSt_1_1 HunSt_1_2"/>
    </vehicle>
    <vehicle id="bicycle34" type="bicycle_bicycle" depart="253.00">
        <route edges="TorPl_1_1 TorPl_1_2 TorPl_1_3 TorPl_1_4 BynPl_1_1 BynPl_1_2 BynPl_1_3 GorSq_1_2 GorSq_1_3"/>
    </vehicle>
    <vehicle id="bicycle35" type="bicycle_bicycle" depart="258.00">
        <route edges="TorPl_1_1 TorPl_1_2 TorPl_1_3 TorPl_2_2 TorPl_2_3 TorPl_2_4"/>
    </vehicle>
    <vehicle id="bicycle36" type="bicycle_bicycle" depart="266.00">
        <route edges="GowSt_1_1 GowSt_1_2 GowSt_1_3 TorPl_1_4 BynPl_1_1 BynPl_1_2 BynPl_1_3 BynPl_2_1 BynPl_2_2 BynPl_2_3 TorPl_2_1 GowSt_2_2 GowSt_2_3"/>
    </vehicle>
    <vehicle id="bicycle37" type="bicycle_bicycle" depart="282.00">
        <route edges="RidGa_2_1 TorPl_1_3 TorPl_1_4 BynPl_1_1 BynPl_1_2 BynPl_1_3 GorSq_2_3"/>
    </vehicle>
    <vehicle id="bicycle38" type="bicycle_bicycle" depart="286.00">
        <route edges="HunSt_2_1 TorPl_1_2 TorPl_1_3 TorPl_1_4 BynPl_1_1 BynPl_1_2 BynPl_1_3 GorSq_2_3"/>
    </vehicle>
    <vehicle id="bicycle39" type="bicycle_bicycle" depart="322.00">
        <route edges="HunSt_2_1 TorPl_1_2 TorPl_1_3 TorPl_1_4 MalSt_1_1"/>
    </vehicle>
    <vehicle id="bicycle40" type="bicycle_bicycle" depart="329.00">
        <route edges="HunSt_2_1 TorPl_2_4"/>
    </vehicle>
    <vehicle id="bicycle41" type="bicycle_bicycle" depart="338.00">
        <route edges="GowSt_1_1 GowSt_1_2 GowSt_1_3 TorPl_1_4 BynPl_1_1 BynPl_1_2 BynPl_1_3 GorSq_2_3"/>
    </vehicle>
    <vehicle id="bicycle42" type="bicycle_bicycle" depart="342.00">
        <route edges="RidGa_2_1 TorPl_2_3 HunSt_1_2"/>
    </vehicle>
    <vehicle id="bicycle43" type="bicycle_bicycle" depart="343.00">
        <route edges="HunSt_1_1 TorPl_1_2 TorPl_1_3 GowSt_1_4"/>
    </vehicle>
    <vehicle id="bicycle44" type="bicycle_bicycle" depart="343.00">
        <route edges="GowSt_1_1 GowSt_1_2 GowSt_1_3 GowSt_1_4"/>
    </vehicle>
    <vehicle id="bicycle45" type="bicycle_bicycle" depart="358.00">
        <route edges="CheMe_1_1 TorPl_1_3 TorPl_1_4 BynPl_1_1 BynPl_1_2 BynPl_1_3 GorSq_2_3"/>
    </vehicle>
    <vehicle id="bicycle46" type="bicycle_bicycle" depart="364.00">
        <route edges="GorSq_2_1 GorSq_2_2 BynPl_2_1 BynPl_2_2 BynPl_2_3 TorPl_2_1 GowSt_1_4"/>
    </vehicle>
    <vehicle id="bicycle47" type="bicycle_bicycle" depart="377.00">
        <route edges="MalSt_2_1 TorPl_2_1 TorPl_1_4 MalSt_1_1"/>
    </vehicle>
    <vehicle id="bicycle48" type="bicycle_bicycle" depart="384.00">
        <route edges="GowSt_1_1 GowSt_1_2 GowSt_1_3 GowSt_1_4"/>
    </vehicle>
    <vehicle id="bicycle49" type="bicycle_bicycle" depart="385.00">
        <route edges="GorSq_2_1 GorSq_2_2 BynPl_2_1 BynPl_2_2 BynPl_2_3 MalSt_1_1"/>
    </vehicle>
    <vehicle id="bicycle50" type="bicycle_bicycle" depart="395.00">
        <route edges="UniSt_1_1 GowSt_1_3 TorPl_2_2 TorPl_2_3 HunSt_1_2"/>
    </vehicle>
    <vehicle id="bicycle51" type="bicycle_bicycle" depart="402.00">
        <route edges="GorSq_1_1 BynPl_2_1 BynPl_2_2 BynPl_2_3 TorPl_2_1 GowSt_2_2 GowSt_2_3"/>
    </vehicle>
    <vehicle id="bicycle52" type="bicycle_bicycle" depart="408.00">
        <route edges="RidGa_2_1 TorPl_1_3 TorPl_1_4 BynPl_1_1 BynPl_1_2 BynPl_1_3 GorSq_2_3"/>
    </vehicle>
    <vehicle id="bicycle53" type="bicycle_bicycle" depart="409.00">
        <route edges="UniSt_1_1 GowSt_1_3 TorPl_1_4 BynPl_1_1 BynPl_1_2 BynPl_1_3 GorSq_1_2 GorSq_1_3"/>
    </vehicle>
    <vehicle id="bicycle54" type="bicycle_bicycle" depart="412.00">
        <route edges="UniSt_1_1 GowSt_1_3 TorPl_1_4 MalSt_1_1"/>
    </vehicle>
    <vehicle id="bicycle55" type="bicycle_bicycle" depart="421.00">
        <route edges="HunSt_2_1 TorPl_1_2 TorPl_1_3 TorPl_1_4 BynPl_1_1 BynPl_1_2 BynPl_1_3 GorSq_1_2 GorSq_1_3"/>
    </vehicle>
    <vehicle id="bicycle56" type="bicycle_bicycle" depart="439.00">
        <route edges="GowSt_1_1 GowSt_1_2 GowSt_1_3 TorPl_2_2 TorPl_2_3 TorPl_2_4"/>
    </vehicle>
    <vehicle id="bicycle57" type="bicycle_bicycle" depart="442.00">
        <route edges="GorSq_2_1 GorSq_2_2 BynPl_2_1 BynPl_2_2 BynPl_2_3 TorPl_2_1 TorPl_2_2 TorPl_2_3 TorPl_2_4"/>
    </vehicle>
    <vehicle id="bicycle58" type="bicycle_bicycle" depart="444.00">
        <route edges="HunSt_2_1 TorPl_2_4"/>
    </vehicle>
    <vehicle id="bicycle59" type="bicycle_bicycle" depart="445.00">
        <route edges="GorSq_1_1 BynPl_2_1 BynPl_2_2 BynPl_2_3 BynPl_1_1 BynPl_1_2 BynPl_1_3 GorSq_2_3"/>
    </vehicle>
    <vehicle id="bicycle60" type="bicycle_bicycle" depart="447.00">
        <route edges="RidGa_2_1 TorPl_1_3 GowSt_1_4"/>
    </vehicle>
    <vehicle id="bicycle61" type="bicycle_bicycle" depart="455.00">
        <route edges="GowSt_1_1 GowSt_1_2 GowSt_1_3 TorPl_1_4 BynPl_1_1 BynPl_1_2 BynPl_1_3 GorSq_1_2 GorSq_1_3"/>
    </vehicle>
    <vehicle id="bicycle62" type="bicycle_bicycle" depart="455.00">
        <route edges="HunSt_1_1 TorPl_1_2 TorPl_1_3 TorPl_1_4 BynPl_1_1 BynPl_1_2 BynPl_1_3 GorSq_2_3"/>
    </vehicle>
    <vehicle id="bicycle63" type="bicycle_bicycle" depart="470.00">
        <route edges="GorSq_1_1 BynPl_2_1 BynPl_2_2 BynPl_2_3 TorPl_2_1 TorPl_2_2 TorPl_2_3 HunSt_1_2"/>
    </vehicle>
    <vehicle id="bicycle64" type="bicycle_bicycle" depart="475.00">
        <route edges="GowSt_2_1 TorPl_1_4 BynPl_1_1 BynPl_1_2 BynPl_1_3 GorSq_2_3"/>
    </vehicle>
    <vehicle id="bicycle65" type="bicycle_bicycle" depart="476.00">
        <route edges="MalSt_2_1 BynPl_1_1 BynPl_1_2 BynPl_1_3 GorSq_2_3"/>
    </vehicle>
    <vehicle id="bicycle66" type="bicycle_bicycle" depart="477.00">
        <route edges="MalSt_2_1 TorPl_2_1 TorPl_2_2 TorPl_2_3 TorPl_2_4"/>
    </vehicle>
    <vehicle id="bicycle67" type="bicycle_bicycle" depart="487.00">
        <route edges="GorSq_2_1 GorSq_2_2 BynPl_2_1 BynPl_2_2 BynPl_2_3 TorPl_2_1 GowSt_1_4"/>
    </vehicle>
    <vehicle id="bicycle68" type="bicycle_bicycle" depart="493.00">
        <route edges="MalSt_2_1 TorPl_2_1 GowSt_2_2 GowSt_2_3"/>
    </vehicle>
    <vehicle id="bicycle69" type="bicycle_bicycle" depart="505.00">
        <route edges="UniSt_1_1 GowSt_1_3 GowSt_1_4"/>
    </vehicle>
    <vehicle id="bicycle70" type="bicycle_bicycle" depart="505.00">
        <route edges="GowSt_1_1 GowSt_1_2 GowSt_1_3 TorPl_1_4 BynPl_1_1 BynPl_1_2 BynPl_1_3 GorSq_1_2 GorSq_1_3"/>
    </vehicle>
    <vehicle id="bicycle71" type="bicycle_bicycle" depart="518.00">
        <route edges="CheMe_1_1 TorPl_1_3 TorPl_1_4 BynPl_1_1 BynPl_1_2 BynPl_1_3 GorSq_1_2 GorSq_1_3"/>
    </vehicle>
    <vehicle id="bicycle72" type="bicycle_bicycle" depart="523.00">
        <route edges="CheMe_1_1 TorPl_1_3 GowSt_2_2 GowSt_2_3"/>
    </vehicle>
    <vehicle id="bicycle73" type="bicycle_bicycle" depart="524.00">
        <route edges="GorSq_2_1 GorSq_2_2 BynPl_2_1 BynPl_2_2 BynPl_2_3 TorPl_2_1 GowSt_1_4"/>
    </vehicle>
    <vehicle id="bicycle74" type="bicycle_bicycle" depart="526.00">
        <route edges="CheMe_1_1 TorPl_1_3 GowSt_2_2 GowSt_2_3"/>
    </vehicle>
    <vehicle id="bicycle75" type="bicycle_bicycle" depart="533.00">
        <route edges="TorPl_1_1 TorPl_1_2 TorPl_1_3 GowSt_1_4"/>
    </vehicle>
    <vehicle id="bicycle76" type="bicycle_bicycle" depart="535.00">
        <route edges="GowSt_2_1 GowSt_2_2 GowSt_2_3"/>
    </vehicle>
    <vehicle id="bicycle77" type="bicycle_bicycle" depart="541.00">
        <route edges="MalSt_2_1 BynPl_1_1 BynPl_1_2 BynPl_1_3 GorSq_1_2 GorSq_1_3"/>
    </vehicle>
    <vehicle id="bicycle78" type="bicycle_bicycle" depart="553.00">
        <route edges="HunSt_2_1 TorPl_1_2 TorPl_1_3 GowSt_1_4"/>
    </vehicle>
    <vehicle id="bicycle79" type="bicycle_bicycle" depart="555.00">
        <route edges="GorSq_1_1 BynPl_2_1 BynPl_2_2 BynPl_2_3 TorPl_2_1 TorPl_2_2 TorPl_2_3 TorPl_2_4"/>
    </vehicle>
    <vehicle id="bicycle80" type="bicycle_bicycle" depart="566.00">
        <route edges="RidGa_2_1 TorPl_1_3 TorPl_1_4 BynPl_1_1 BynPl_1_2 BynPl_1_3 GorSq_2_3"/>
    </vehicle>
    <vehicle id="bicycle81" type="bicycle_bicycle" depart="575.00">
        <route edges="HunSt_1_1 TorPl_1_2 TorPl_1_3 GowSt_1_4"/>
    </vehicle>
    <vehicle id="bicycle82" type="bicycle_bicycle" depart="577.00">
        <route edges="GowSt_1_1 GowSt_1_2 GowSt_1_3 TorPl_2_2 TorPl_2_3 HunSt_1_2"/>
    </vehicle>
    <vehicle id="bicycle83" type="bicycle_bicycle" depart="578.00">
        <route edges="TorPl_1_1 TorPl_1_2 TorPl_1_3 TorPl_1_4 MalSt_1_1"/>
    </vehicle>
    <vehicle id="bicycle84" type="bicycle_bicycle" depart="594.00">
        <route edges="HunSt_2_1 TorPl_1_2 TorPl_1_3 TorPl_2_2 TorPl_2_3 HunSt_1_2"/>
    </vehicle>
    <vehicle id="bicycle85" type="bicycle_bicycle" depart="596.00">
        <route edges="GowSt_2_1 TorPl_1_4 MalSt_1_1"/>
    </vehicle>
    <vehicle id="bicycle86" type="bicycle_bicycle" depart="611.00">
        <route edges="MalSt_2_1 BynPl_1_1 BynPl_1_2 BynPl_1_3 GorSq_1_2 GorSq_1_3"/>
    </vehicle>
    <vehicle id="bicycle87" type="bicycle_bicycle" depart="616.00">
        <route edges="HunSt_1_1 TorPl_2_4"/>
    </vehicle>
    <vehicle id="bicycle88" type="bicycle_bicycle" depart="616.00">
        <route edges="TorPl_1_1 TorPl_1_2 TorPl_1_3 TorPl_1_4 BynPl_1_1 BynPl_1_2 BynPl_1_3 GorSq_2_3"/>
    </vehicle>
    <vehicle id="bicycle89" type="bicycle_bicycle" depart="623.00">
        <route edges="GorSq_1_1 BynPl_2_1 BynPl_2_2 BynPl_2_3 TorPl_2_1 TorPl_2_2 TorPl_2_3 HunSt_1_2"/>
    </vehicle>
    <vehicle id="bicycle90" type="bicycle_bicycle" depart="648.00">
        <route edges="CheMe_1_1 TorPl_2_3 HunSt_1_2"/>
    </vehicle>
    <vehicle id="bicycle91" type="bicycle_bicycle" depart="652.00">
        <route edges="GorSq_1_1 BynPl_2_1 BynPl_2_2 BynPl_2_3 MalSt_1_1"/>
    </vehicle>
    <vehicle id="bicycle92" type="bicycle_bicycle" depart="652.00">
        <route edges="CheMe_1_1 TorPl_1_3 TorPl_1_4 BynPl_1_1 BynPl_1_2 BynPl_1_3 GorSq_2_3"/>
    </vehicle>
    <vehicle id="bicycle93" type="bicycle_bicycle" depart="655.00">
        <route edges="GorSq_2_1 GorSq_2_2 GorSq_2_3"/>
    </vehicle>
    <vehicle id="bicycle94" type="bicycle_bicycle" depart="656.00">
        <route edges="GowSt_2_1 TorPl_1_4 BynPl_1_1 BynPl_1_2 BynPl_1_3 GorSq_2_3"/>
    </vehicle>
    <vehicle id="bicycle95" type="bicycle_bicycle" depart="660.00">
        <route edges="CheMe_1_1 TorPl_1_3 GowSt_2_2 GowSt_2_3"/>
    </vehicle>
    <vehicle id="bicycle96" type="bicycle_bicycle" depart="664.00">
        <route edges="HunSt_2_1 TorPl_1_2 TorPl_1_3 TorPl_2_2 TorPl_2_3 HunSt_1_2"/>
    </vehicle>
    <vehicle id="bicycle97" type="bicycle_bicycle" depart="687.00">
        <route edges="CheMe_1_1 TorPl_1_3 TorPl_1_4 BynPl_1_1 BynPl_1_2 BynPl_1_3 GorSq_1_2 GorSq_1_3"/>
    </vehicle>
    <vehicle id="bicycle98" type="bicycle_bicycle" depart="693.00">
        <route edges="HunSt_1_1 TorPl_1_2 TorPl_1_3 TorPl_1_4 BynPl_1_1 BynPl_1_2 BynPl_1_3 GorSq_2_3"/>
    </vehicle>
    <vehicle id="bicycle99" type="bicycle_bicycle" depart="699.00">
        <route edges="GorSq_1_1 BynPl_2_1 BynPl_2_2 BynPl_2_3 TorPl_2_1 TorPl_2_2 TorPl_2_3 HunSt_1_2"/>
    </vehicle>
    <vehicle id="bicycle100" type="bicycle_bicycle" depart="710.00">
        <route edges="GorSq_2_1 GorSq_2_2 BynPl_2_1 BynPl_2_2 BynPl_2_3 TorPl_2_1 TorPl_2_2 TorPl_2_3 HunSt_1_2"/>
    </vehicle>
    <vehicle id="bicycle101" type="bicycle_bicycle" depart="722.00">
        <route edges="GorSq_1_1 BynPl_2_1 BynPl_2_2 BynPl_2_3 TorPl_2_1 TorPl_2_2 TorPl_2_3 TorPl_2_4"/>
    </vehicle>
    <vehicle id="bicycle102" type="bicycle_bicycle" depart="746.00">
        <route edges="MalSt_2_1 TorPl_2_1 GowSt_2_2 GowSt_2_3"/>
    </vehicle>
    <vehicle id="bicycle103" type="bicycle_bicycle" depart="752.00">
        <route edges="GowSt_2_1 GowSt_2_2 GowSt_2_3"/>
    </vehicle>
    <vehicle id="bicycle104" type="bicycle_bicycle" depart="762.00">
        <route edges="GorSq_1_1 BynPl_2_1 BynPl_2_2 BynPl_2_3 BynPl_1_1 BynPl_1_2 BynPl_1_3 GorSq_2_3"/>
    </vehicle>
    <vehicle id="bicycle105" type="bicycle_bicycle" depart="772.00">
        <route edges="CheMe_1_1 TorPl_1_3 TorPl_1_4 BynPl_1_1 BynPl_1_2 BynPl_1_3 GorSq_2_3"/>
    </vehicle>
    <vehicle id="bicycle106" type="bicycle_bicycle" depart="779.00">
        <route edges="GorSq_2_1 GorSq_2_2 BynPl_2_1 BynPl_2_2 BynPl_2_3 TorPl_2_1 GowSt_2_2 GowSt_2_3"/>
    </vehicle>
    <vehicle id="bicycle107" type="bicycle_bicycle" depart="781.00">
        <route edges="MalSt_2_1 TorPl_2_1 TorPl_2_2 TorPl_2_3 HunSt_1_2"/>
    </vehicle>
    <vehicle id="bicycle108" type="bicycle_bicycle" depart="784.00">
        <route edges="HunSt_2_1 TorPl_2_4"/>
    </vehicle>
    <vehicle id="bicycle109" type="bicycle_bicycle" depart="789.00">
        <route edges="GowSt_1_1 GowSt_1_2 GowSt_1_3 TorPl_1_4 MalSt_1_1"/>
    </vehicle>
    <vehicle id="bicycle110" type="bicycle_bicycle" depart="792.00">
        <route edges="GorSq_2_1 GorSq_2_2 BynPl_2_1 BynPl_2_2 BynPl_2_3 TorPl_2_1 TorPl_2_2 TorPl_2_3 HunSt_1_2"/>
    </vehicle>
    <vehicle id="bicycle111" type="bicycle_bicycle" depart="796.00">
        <route edges="GorSq_1_1 BynPl_2_1 BynPl_2_2 BynPl_2_3 MalSt_1_1"/>
    </vehicle>
    <vehicle id="bicycle112" type="bicycle_bicycle" depart="796.00">
        <route edges="GowSt_1_1 GowSt_1_2 GowSt_1_3 TorPl_1_4 BynPl_1_1 BynPl_1_2 BynPl_1_3 GorSq_2_3"/>
    </vehicle>
    <vehicle id="bicycle113" type="bicycle_bicycle" depart="801.00">
        <route edges="GowSt_2_1 TorPl_2_2 TorPl_2_3 HunSt_1_2"/>
    </vehicle>
    <vehicle id="bicycle114" type="bicycle_bicycle" depart="809.00">
        <route edges="MalSt_2_1 BynPl_1_1 BynPl_1_2 BynPl_1_3 GorSq_1_2 GorSq_1_3"/>
    </vehicle>
    <vehicle id="bicycle115" type="bicycle_bicycle" depart="810.00">
        <route edges="TorPl_1_1 TorPl_1_2 TorPl_1_3 TorPl_1_4 BynPl_1_1 BynPl_1_2 BynPl_1_3 GorSq_1_2 GorSq_1_3"/>
    </vehicle>
    <vehicle id="bicycle116" type="bicycle_bicycle" depart="821.00">
        <route edges="GowSt_1_1 GowSt_1_2 GowSt_1_3 TorPl_1_4 BynPl_1_1 BynPl_1_2 BynPl_1_3 GorSq_2_3"/>
    </vehicle>
    <vehicle id="bicycle117" type="bicycle_bicycle" depart="824.00">
        <route edges="GowSt_1_1 GowSt_1_2 GowSt_1_3 TorPl_1_4 BynPl_1_1 BynPl_1_2 BynPl_1_3 GorSq_1_2 GorSq_1_3"/>
    </vehicle>
    <vehicle id="bicycle118" type="bicycle_bicycle" depart="824.00">
        <route edges="CheMe_1_1 TorPl_1_3 TorPl_1_4 BynPl_1_1 BynPl_1_2 BynPl_1_3 GorSq_2_3"/>
    </vehicle>
    <vehicle id="bicycle119" type="bicycle_bicycle" depart="838.00">
        <route edges="CheMe_1_1 TorPl_1_3 GowSt_2_2 GowSt_2_3"/>
    </vehicle>
    <vehicle id="bicycle120" type="bicycle_bicycle" depart="844.00">
        <route edges="GowSt_1_1 GowSt_1_2 GowSt_1_3 GowSt_1_4"/>
    </vehicle>
    <vehicle id="bicycle121" type="bicycle_bicycle" depart="848.00">
        <route edges="TorPl_1_1 TorPl_1_2 TorPl_1_3 TorPl_1_4 BynPl_1_1 BynPl_1_2 BynPl_1_3 GorSq_1_2 GorSq_1_3"/>
    </vehicle>
    <vehicle id="bicycle122" type="bicycle_bicycle" depart="850.00">
        <route edges="HunSt_1_1 TorPl_2_4"/>
    </vehicle>
    <vehicle id="bicycle123" type="bicycle_bicycle" depart="852.00">
        <route edges="UniSt_1_1 GowSt_1_3 TorPl_1_4 BynPl_1_1 BynPl_1_2 BynPl_1_3 GorSq_2_3"/>
    </vehicle>
    <vehicle id="bicycle124" type="bicycle_bicycle" depart="862.00">
        <route edges="GowSt_1_1 GowSt_1_2 GowSt_1_3 TorPl_1_4 MalSt_1_1"/>
    </vehicle>
    <vehicle id="bicycle125" type="bicycle_bicycle" depart="870.00">
        <route edges="GowSt_1_1 GowSt_1_2 GowSt_1_3 TorPl_1_4 BynPl_1_1 BynPl_1_2 BynPl_1_3 GorSq_2_3"/>
    </vehicle>
    <vehicle id="bicycle126" type="bicycle_bicycle" depart="874.00">
        <route edges="GorSq_1_1 BynPl_2_1 BynPl_2_2 BynPl_2_3 TorPl_2_1 TorPl_2_2 TorPl_2_3 TorPl_2_4"/>
    </vehicle>
    <vehicle id="bicycle127" type="bicycle_bicycle" depart="879.00">
        <route edges="CheMe_1_1 TorPl_1_3 TorPl_1_4 BynPl_1_1 BynPl_1_2 BynPl_1_3 GorSq_1_2 GorSq_1_3"/>
    </vehicle>
    <vehicle id="bicycle128" type="bicycle_bicycle" depart="911.00">
        <route edges="RidGa_2_1 TorPl_1_3 TorPl_1_4 MalSt_1_1"/>
    </vehicle>
    <vehicle id="bicycle129" type="bicycle_bicycle" depart="928.00">
        <route edges="GorSq_2_1 GorSq_2_2 BynPl_2_1 BynPl_2_2 BynPl_2_3 TorPl_2_1 TorPl_2_2 TorPl_2_3 HunSt_1_2"/>
    </vehicle>
    <vehicle id="bicycle130" type="bicycle_bicycle" depart="937.00">
        <route edges="RidGa_2_1 TorPl_1_3 GowSt_2_2 GowSt_2_3"/>
    </vehicle>
    <vehicle id="bicycle131" type="bicycle_bicycle" depart="958.00">
        <route edges="CheMe_1_1 TorPl_2_3 TorPl_2_4"/>
    </vehicle>
    <vehicle id="bicycle132" type="bicycle_bicycle" depart="964.00">
        <route edges="GorSq_2_1 GorSq_2_2 BynPl_2_1 BynPl_2_2 BynPl_2_3 MalSt_1_1"/>
    </vehicle>
    <vehicle id="bicycle133" type="bicycle_bicycle" depart="983.00">
        <route edges="HunSt_2_1 TorPl_1_2 TorPl_1_3 TorPl_2_2 TorPl_2_3 HunSt_1_2"/>
    </vehicle>
    <vehicle id="bicycle134" type="bicycle_bicycle" depart="1001.00">
        <route edges="HunSt_1_1 TorPl_1_2 TorPl_1_3 GowSt_2_2 GowSt_2_3"/>
    </vehicle>
    <vehicle id="bicycle135" type="bicycle_bicycle" depart="1018.00">
        <route edges="CheMe_1_1 TorPl_1_3 GowSt_2_2 GowSt_2_3"/>
    </vehicle>
    <vehicle id="bicycle136" type="bicycle_bicycle" depart="1020.00">
        <route edges="CheMe_1_1 TorPl_2_3 TorPl_2_4"/>
    </vehicle>
    <vehicle id="bicycle137" type="bicycle_bicycle" depart="1032.00">
        <route edges="CheMe_1_1 TorPl_2_3 HunSt_1_2"/>
    </vehicle>
    <vehicle id="bicycle138" type="bicycle_bicycle" depart="1036.00">
        <route edges="GorSq_2_1 GorSq_2_2 GorSq_1_2 GorSq_1_3"/>
    </vehicle>
    <vehicle id="bicycle139" type="bicycle_bicycle" depart="1057.00">
        <route edges="MalSt_2_1 TorPl_2_1 GowSt_1_4"/>
    </vehicle>
    <vehicle id="bicycle140" type="bicycle_bicycle" depart="1060.00">
        <route edges="RidGa_2_1 TorPl_2_3 TorPl_2_4"/>
    </vehicle>
    <vehicle id="bicycle141" type="bicycle_bicycle" depart="1082.00">
        <route edges="GorSq_2_1 GorSq_2_2 BynPl_2_1 BynPl_2_2 BynPl_2_3 TorPl_2_1 GowSt_1_4"/>
    </vehicle>
    <vehicle id="bicycle142" type="bicycle_bicycle" depart="1086.00">
        <route edges="HunSt_1_1 TorPl_1_2 TorPl_1_3 GowSt_1_4"/>
    </vehicle>
    <vehicle id="bicycle143" type="bicycle_bicycle" depart="1091.00">
        <route edges="HunSt_1_1 TorPl_1_2 TorPl_1_3 GowSt_2_2 GowSt_2_3"/>
    </vehicle>
    <vehicle id="bicycle144" type="bicycle_bicycle" depart="1122.00">
        <route edges="GowSt_2_1 TorPl_1_4 MalSt_1_1"/>
    </vehicle>
    <vehicle id="bicycle145" type="bicycle_bicycle" depart="1123.00">
        <route edges="RidGa_2_1 TorPl_1_3 TorPl_1_4 MalSt_1_1"/>
    </vehicle>
    <vehicle id="bicycle146" type="bicycle_bicycle" depart="1133.00">
        <route edges="MalSt_2_1 TorPl_2_1 TorPl_2_2 TorPl_2_3 TorPl_2_4"/>
    </vehicle>
    <vehicle id="bicycle147" type="bicycle_bicycle" depart="1135.00">
        <route edges="TorPl_1_1 TorPl_1_2 TorPl_1_3 GowSt_2_2 GowSt_2_3"/>
    </vehicle>
    <vehicle id="bicycle148" type="bicycle_bicycle" depart="1140.00">
        <route edges="GowSt_1_1 GowSt_1_2 GowSt_1_3 TorPl_2_2 TorPl_2_3 HunSt_1_2"/>
    </vehicle>
    <vehicle id="bicycle149" type="bicycle_bicycle" depart="1145.00">
        <route edges="MalSt_2_1 TorPl_2_1 GowSt_2_2 GowSt_2_3"/>
    </vehicle>
    <vehicle id="bicycle150" type="bicycle_bicycle" depart="1149.00">
        <route edges="HunSt_1_1 TorPl_1_2 TorPl_1_3 TorPl_1_4 MalSt_1_1"/>
    </vehicle>
    <vehicle id="bicycle151" type="bicycle_bicycle" depart="1150.00">
        <route edges="CheMe_1_1 TorPl_1_3 TorPl_1_4 BynPl_1_1 BynPl_1_2 BynPl_1_3 GorSq_1_2 GorSq_1_3"/>
    </vehicle>
    <vehicle id="bicycle152" type="bicycle_bicycle" depart="1157.00">
        <route edges="UniSt_1_1 GowSt_2_3"/>
    </vehicle>
    <vehicle id="bicycle153" type="bicycle_bicycle" depart="1157.00">
        <route edges="GowSt_2_1 TorPl_1_4 BynPl_1_1 BynPl_1_2 BynPl_1_3 BynPl_2_1 BynPl_2_2 BynPl_2_3 TorPl_2_1 GowSt_1_4"/>
    </vehicle>
    <vehicle id="bicycle154" type="bicycle_bicycle" depart="1167.00">
        <route edges="GorSq_1_1 BynPl_2_1 BynPl_2_2 BynPl_2_3 TorPl_2_1 TorPl_2_2 TorPl_2_3 TorPl_2_4"/>
    </vehicle>
    <vehicle id="bicycle155" type="bicycle_bicycle" depart="1180.00">
        <route edges="MalSt_2_1 BynPl_1_1 BynPl_1_2 BynPl_1_3 GorSq_1_2 GorSq_1_3"/>
    </vehicle>
    <vehicle id="bicycle156" type="bicycle_bicycle" depart="1194.00">
        <route edges="GorSq_1_1 BynPl_2_1 BynPl_2_2 BynPl_2_3 TorPl_2_1 GowSt_2_2 GowSt_2_3"/>
    </vehicle>
    <vehicle id="bicycle157" type="bicycle_bicycle" depart="1194.00">
        <route edges="GowSt_1_1 GowSt_1_2 GowSt_1_3 TorPl_1_4 BynPl_1_1 BynPl_1_2 BynPl_1_3 GorSq_2_3"/>
    </vehicle>
    <vehicle id="bicycle158" type="bicycle_bicycle" depart="1198.00">
        <route edges="RidGa_2_1 TorPl_2_3 HunSt_1_2"/>
    </vehicle>
    <vehicle id="bicycle159" type="bicycle_bicycle" depart="1201.00">
        <route edges="TorPl_1_1 TorPl_1_2 TorPl_1_3 TorPl_1_4 MalSt_1_1"/>
    </vehicle>
    <vehicle id="bicycle160" type="bicycle_bicycle" depart="1224.00">
        <route edges="CheMe_1_1 TorPl_1_3 TorPl_1_4 BynPl_1_1 BynPl_1_2 BynPl_1_3 GorSq_2_3"/>
    </vehicle>
    <vehicle id="bicycle161" type="bicycle_bicycle" depart="1224.00">
        <route edges="GowSt_2_1 TorPl_1_4 BynPl_1_1 BynPl_1_2 BynPl_1_3 GorSq_2_3"/>
    </vehicle>
    <vehicle id="bicycle162" type="bicycle_bicycle" depart="1227.00">
        <route edges="GowSt_1_1 GowSt_1_2 GowSt_1_3 TorPl_1_4 BynPl_1_1 BynPl_1_2 BynPl_1_3 GorSq_1_2 GorSq_1_3"/>
    </vehicle>
    <vehicle id="bicycle163" type="bicycle_bicycle" depart="1240.00">
        <route edges="GorSq_2_1 GorSq_2_2 BynPl_2_1 BynPl_2_2 BynPl_2_3 TorPl_2_1 GowSt_2_2 GowSt_2_3"/>
    </vehicle>
    <vehicle id="bicycle164" type="bicycle_bicycle" depart="1243.00">
        <route edges="MalSt_2_1 TorPl_2_1 TorPl_1_4 MalSt_1_1"/>
    </vehicle>
    <vehicle id="bicycle165" type="bicycle_bicycle" depart="1250.00">
        <route edges="MalSt_2_1 TorPl_2_1 TorPl_1_4 MalSt_1_1"/>
    </vehicle>
    <vehicle id="bicycle166" type="bicycle_bicycle" depart="1256.00">
        <route edges="RidGa_2_1 TorPl_1_3 GowSt_1_4"/>
    </vehicle>
    <vehicle id="bicycle167" type="bicycle_bicycle" depart="1274.00">
        <route edges="RidGa_2_1 TorPl_1_3 TorPl_1_4 MalSt_1_1"/>
    </vehicle>
    <vehicle id="bicycle168" type="bicycle_bicycle" depart="1275.00">
        <route edges="UniSt_1_1 GowSt_1_3 GowSt_1_4"/>
    </vehicle>
    <vehicle id="bicycle169" type="bicycle_bicycle" depart="1276.00">
        <route edges="GorSq_2_1 GorSq_2_2 BynPl_2_1 BynPl_2_2 BynPl_2_3 TorPl_2_1 GowSt_1_4"/>
    </vehicle>
    <vehicle id="bicycle170" type="bicycle_bicycle" depart="1281.00">
        <route edges="RidGa_2_1 TorPl_1_3 TorPl_1_4 BynPl_1_1 BynPl_1_2 BynPl_1_3 GorSq_2_3"/>
    </vehicle>
    <vehicle id="bicycle171" type="bicycle_bicycle" depart="1292.00">
        <route edges="GowSt_2_1 TorPl_2_2 TorPl_2_3 TorPl_2_4"/>
    </vehicle>
    <vehicle id="bicycle172" type="bicycle_bicycle" depart="1294.00">