<?xml version="1.0" encoding="UTF-8"?>

<!-- generated on 2026-02-02 16:41:45.490761 by Eclipse SUMO randomTrips.py UNKNOWN
<configuration>
    <net-file value="../networks/extended/main.net.xml"/>
    <output-trip-file value="../routes/extended/train/4914/bicycle.trips.xml"/>
    <route-file value="../routes/extended/train/4914/bicycle.rou.xml"/>
    <prefix value="bicycle"/>
    <vehicle-class value="bicycle"/>
    <fringe-factor value="max"/>
    <seed value="4914"/>
    <insertion-density value="100.0"/>
    <binomial value="100"/>
</configuration>
-->

<!-- generated on 2026-02-02T16:41:45.482716+00:00 by Eclipse SUMO duarouter 1.25.0
<duarouterConfiguration xmlns:xsi="http://www.w3.org/2001/XMLSchema-instance" xsi:noNamespaceSchemaLocation="http://sumo.dlr.de/xsd/duarouterConfiguration.xsd">

    <input>
        <net-file value="../networks/extended/main.net.xml"/>
        <route-files value="../routes/extended/train/4914/bicycle.trips.xml"/>
    </input>

    <output>
        <output-file value="../routes/extended/train/4914/bicycle.rou.xml"/>
        <alternatives-output value="NUL"/>
    </output>

    <time>
        <begin value="0"/>
        <end value="3600.0"/>
    </time>

    <report>
        <no-warnings value="true"/>
        <ignore-errors value="true"/>
        <no-step-log value="true"/>
    </report>

</duarouterConfiguration>
-->

<routes xmlns:xsi="http://www.w3.org/2001/XMLSchema-instance" xsi:noNamespaceSchemaLocation="http://sumo.dlr.de/xsd/routes_file.xsd">
    <vType id="bicycle_bicycle" vClass="bicycle"/>
    <vehicle id="bicycle0" type="bicycle_bicycle" depart="0.00">
        <route edges="GowSt_2_1 TorPl_1_4 MalSt_1_1"/>
    </vehicle>
    <vehicle id="bicycle1" type="bicycle_bicycle" depart="3.00">
        <route edges="GowSt_1_1 GowSt_1_2 GowSt_1_3 TorPl_2_2 TorPl_2_3 HunSt_1_2"/>
    </vehicle>
    <vehicle id="bicycle2" type="bicycle_bicycle" depart="9.00">
        <route edges="GowSt_1_1 GowSt_1_2 GowSt_1_3 TorPl_2_2 TorPl_2_3 TorPl_2_4"/>
    </vehicle>
    <vehicle id="bicycle3" type="bicycle_bicycle" depart="15.00">
        <route edges="MalSt_2_1 BynPl_1_1 BynPl_1_2 BynPl_1_3 GorSq_1_2 GorSq_1_3"/>
    </vehicle>
    <vehicle id="bicycle4" type="bicycle_bicycle" depart="25.00">
        <route edges="HunSt_2_1 TorPl_1_2 TorPl_1_3 TorPl_1_4 BynPl_1_1 BynPl_1_2 BynPl_1_3 GorSq_2_3"/>
    </vehicle>
    <vehicle id="bicycle5" type="bicycle_bicycle" depart="38.00">
        <route edges="GowSt_2_1 GowSt_2_2 GowSt_2_3"/>
    </vehicle>
    <vehicle id="bicycle6" type="bicycle_bicycle" depart="39.00">
        <route edges="GorSq_1_1 BynPl_2_1 BynPl_2_2 BynPl_2_3 MalSt_1_1"/>
    </vehicle>
    <vehicle id="bicycle7" type="bicycle_bicycle" depart="41.00">
        <route edges="GowSt_2_1 TorPl_1_4 BynPl_1_1 BynPl_1_2 BynPl_1_3 BynPl_2_1 BynPl_2_2 BynPl_2_3 TorPl_2_1 GowSt_1_4"/>
    </vehicle>
    <vehicle id="bicycle8" type="bicycle_bicycle" depart="48.00">
        <route edges="RidGa_2_1 TorPl_1_3 TorPl_1_4 BynPl_1_1 BynPl_1_2 BynPl_1_3 GorSq_2_3"/>
    </vehicle>
    <vehicle id="bicycle9" type="bicycle_bicycle" depart="52.00">
        <route edges="HunSt_1_1 TorPl_1_2 TorPl_1_3 GowSt_1_4"/>
    </vehicle>
    <vehicle id="bicycle10" type="bicycle_bicycle" depart="71.00">
        <route edges="GowSt_1_1 GowSt_1_2 GowSt_1_3 TorPl_1_4 BynPl_1_1 BynPl_1_2 BynPl_1_3 BynPl_2_1 BynPl_2_2 BynPl_2_3 TorPl_2_1 GowSt_2_2 GowSt_2_3"/>
    </vehicle>
    <vehicle id="bicycle11" type="bicycle_bicycle" depart="72.00">
        <route edges="MalSt_2_1 BynPl_1_1 BynPl_1_2 BynPl_1_3 GorSq_1_2 GorSq_1_3"/>
    </vehicle>
    <vehicle id="bicycle12" type="bicycle_bicycle" depart="73.00">
        <route edges="HunSt_1_1 TorPl_1_2 TorPl_1_3 TorPl_1_4 BynPl_1_1 BynPl_1_2 BynPl_1_3 GorSq_2_3"/>
    </vehicle>
    <vehicle id="bicycle13" type="bicycle_bicycle" depart="83.00">
        <route edges="UniSt_1_1 GowSt_1_3 TorPl_1_4 BynPl_1_1 BynPl_1_2 BynPl_1_3 GorSq_1_2 GorSq_1_3"/>
    </vehicle>
    <vehicle id="bicycle14" type="bicycle_bicycle" depart="91.00">
        <route edges="GorSq_1_1 BynPl_2_1 BynPl_2_2 BynPl_2_3 TorPl_2_1 TorPl_2_2 TorPl_2_3 TorPl_2_4"/>
    </vehicle>
    <vehicle id="bicycle15" type="bicycle_bicycle" depart="92.00">
        <route edges="TorPl_1_1 TorPl_1_2 TorPl_1_3 TorPl_1_4 BynPl_1_1 BynPl_1_2 BynPl_1_3 GorSq_2_3"/>
    </vehicle>
    <vehicle id="bicycle16" type="bicycle_bicycle" depart="99.00">
        <route edges="UniSt_1_1 GowSt_1_3 GowSt_1_4"/>
    </vehicle>
    <vehicle id="bicycle17" type="bicycle_bicycle" depart="103.00">
        <route edges="HunSt_1_1 TorPl_1_2 TorPl_1_3 GowSt_1_4"/>
    </vehicle>
    <vehicle id="bicycle18" type="bicycle_bicycle" depart="111.00">
        <route edges="GorSq_2_1 GorSq_2_2 BynPl_2_1 BynPl_2_2 BynPl_2_3 TorPl_2_1 TorPl_2_2 TorPl_2_3 TorPl_2_4"/>
    </vehicle>
    <vehicle id="bicycle19" type="bicycle_bicycle" depart="115.00">
        <route edges="TorPl_1_1 TorPl_1_2 TorPl_1_3 TorPl_1_4 BynPl_1_1 BynPl_1_2 BynPl_1_3 GorSq_1_2 GorSq_1_3"/>
    </vehicle>
    <vehicle id="bicycle20" type="bicycle_bicycle" depart="117.00">
        <route edges="HunSt_2_1 TorPl_1_2 TorPl_1_3 TorPl_2_2 TorPl_2_3 HunSt_1_2"/>
    </vehicle>
    <vehicle id="bicycle21" type="bicycle_bicycle" depart="126.00">
        <route edges="RidGa_2_1 TorPl_1_3 GowSt_1_4"/>
    </vehicle>
    <vehicle id="bicycle22" type="bicycle_bicycle" depart="126.00">
        <route edges="GowSt_2_1 TorPl_1_4 BynPl_1_1 BynPl_1_2 BynPl_1_3 GorSq_1_2 GorSq_1_3"/>
    </vehicle>
    <vehicle id="bicycle23" type="bicycle_bicycle" depart="127.00">
        <route edges="HunSt_2_1 TorPl_2_4"/>
    </vehicle>
    <vehicle id="bicycle24" type="bicycle_bicycle" depart="128.00">
        <route edges="HunSt_2_1 TorPl_1_2 TorPl_1_3 TorPl_2_2 TorPl_2_3 HunSt_1_2"/>
    </vehicle>
    <vehicle id="bicycle25" type="bicycle_bicycle" depart="132.00">
        <route edges="MalSt_2_1 BynPl_1_1 BynPl_1_2 BynPl_1_3 GorSq_2_3"/>
    </vehicle>
    <vehicle id="bicycle26" type="bicycle_bicycle" depart="144.00">
        <route edges="GorSq_2_1 GorSq_2_2 BynPl_2_1 BynPl_2_2 BynPl_2_3 TorPl_2_1 TorPl_2_2 TorPl_2_3 TorPl_2_4"/>
    </vehicle>
    <vehicle id="bicycle27" type="bicycle_bicycle" depart="145.00">
        <route edges="TorPl_1_1 TorPl_1_2 TorPl_1_3 TorPl_1_4 BynPl_1_1 BynPl_1_2 BynPl_1_3 GorSq_2_3"/>
    </vehicle>
    <vehicle id="bicycle28" type="bicycle_bicycle" depart="154.00">
        <route edges="CheMe_1_1 TorPl_1_3 TorPl_1_4 BynPl_1_1 BynPl_1_2 BynPl_1_3 GorSq_2_3"/>
    </vehicle>
    <vehicle id="bicycle29" type="bicycle_bicycle" depart="163.00">
        <route edges="HunSt_2_1 TorPl_1_2 TorPl_1_3 TorPl_1_4 BynPl_1_1 BynPl_1_2 BynPl_1_3 GorSq_1_2 GorSq_1_3"/>
    </vehicle>
    <vehicle id="bicycle30" type="bicycle_bicycle" depart="169.00">
        <route edges="HunSt_1_1 TorPl_1_2 TorPl_1_3 TorPl_1_4 BynPl_1_1 BynPl_1_2 BynPl_1_3 GorSq_1_2 GorSq_1_3"/>
    </vehicle>
    <vehicle id="bicycle31" type="bicycle_bicycle" depart="170.00">
        <route edges="GorSq_2_1 GorSq_2_2 BynPl_2_1 BynPl_2_2 BynPl_2_3 TorPl_2_1 GowSt_1_4"/>
    </vehicle>
    <vehicle id="bicycle32" type="bicycle_bicycle" depart="176.00">
        <route edges="HunSt_2_1 TorPl_1_2 TorPl_1_3 GowSt_1_4"/>
    </vehicle>
    <vehicle id="bicycle33" type="bicycle_bicycle" depart="186.00">
        <route edges="GowSt_1_1 GowSt_1_2 GowSt_1_3 TorPl_1_4 BynPl_1_1 BynPl_1_2 BynPl_1_3 GorSq_2_3"/>
    </vehicle>
    <vehicle id="bicycle34" type="bicycle_bicycle" depart="197.00">
        <route edges="HunSt_2_1 TorPl_1_2 TorPl_1_3 GowSt_2_2 GowSt_2_3"/>
    </vehicle>
    <vehicle id="bicycle35" type="bicycle_bicycle" depart="213.00">
        <route edges="GorSq_2_1 GorSq_2_2 GorSq_2_3"/>
    </vehicle>
    <vehicle id="bicycle36" type="bicycle_bicycle" depart="224.00">
        <route edges="GorSq_1_1 BynPl_2_1 BynPl_2_2 BynPl_2_3 TorPl_2_1 TorPl_2_2 TorPl_2_3 TorPl_2_4"/>
    </vehicle>
    <vehicle id="bicycle37" type="bicycle_bicycle" depart="224.00">
        <route edges="GorSq_1_1 GorSq_1_2 GorSq_1_3"/>
    </vehicle>
    <vehicle id="bicycle38" type="bicycle_bicycle" depart="231.00">
        <route edges="TorPl_1_1 TorPl_1_2 TorPl_1_3 TorPl_1_4 BynPl_1_1 BynPl_1_2 BynPl_1_3 GorSq_2_3"/>
    </vehicle>
    <vehicle id="bicycle39" type="bicycle_bicycle" depart="234.00">
        <route edges="UniSt_1_1 GowSt_1_3 TorPl_2_2 TorPl_2_3 TorPl_2_4"/>
    </vehicle>
    <vehicle id="bicycle40" type="bicycle_bicycle" depart="243.00">
        <route edges="TorPl_1_1 TorPl_1_2 TorPl_1_3 TorPl_1_4 BynPl_1_1 BynPl_1_2 BynPl_1_3 GorSq_1_2 GorSq_1_3"/>
    </vehicle>
    <vehicle id="bicycle41" type="bicycle_bicycle" depart="265.00">
        <route edges="GowSt_2_1 TorPl_2_2 TorPl_2_3 HunSt_1_2"/>
    </vehicle>
    <vehicle id="bicycle42" type="bicycle_bicycle" depart="266.00">
        <route edges="RidGa_2_1 TorPl_1_3 GowSt_2_2 GowSt_2_3"/>
    </vehicle>
    <vehicle id="bicycle43" type="bicycle_bicycle" depart="275.00">
        <route edges="HunSt_1_1 HunSt_1_2"/>
    </vehicle>
    <vehicle id="bicycle44" type="bicycle_bicycle" depart="277.00">
        <route edges="HunSt_1_1 TorPl_1_2 TorPl_1_3 TorPl_1_4 MalSt_1_1"/>
    </vehicle>
    <vehicle id="bicycle45" type="bicycle_bicycle" depart="278.00">
        <route edges="UniSt_1_1 GowSt_1_3 GowSt_1_4"/>
    </vehicle>
    <vehicle id="bicycle46" type="bicycle_bicycle" depart="280.00">
        <route edges="MalSt_2_1 TorPl_2_1 TorPl_2_2 TorPl_2_3 HunSt_1_2"/>
    </vehicle>
    <vehicle id="bicycle47" type="bicycle_bicycle" depart="296.00">
        <route edges="HunSt_2_1 TorPl_1_2 TorPl_1_3 TorPl_1_4 BynPl_1_1 BynPl_1_2 BynPl_1_3 GorSq_2_3"/>
    </vehicle>
    <vehicle id="bicycle48" type="bicycle_bicycle" depart="305.00">
        <route edges="TorPl_1_1 TorPl_1_2 TorPl_1_3 TorPl_1_4 BynPl_1_1 BynPl_1_2 BynPl_1_3 GorSq_2_3"/>
    </vehicle>
    <vehicle id="bicycle49" type="bicycle_bicycle" depart="308.00">
        <route edges="GorSq_2_1 GorSq_2_2 BynPl_2_1 BynPl_2_2 BynPl_2_3 TorPl_2_1 GowSt_2_2 GowSt_2_3"/>
    </vehicle>
    <vehicle id="bicycle50" type="bicycle_bicycle" depart="321.00">
        <route edges="TorPl_1_1 TorPl_1_2 TorPl_1_3 GowSt_2_2 GowSt_2_3"/>
    </vehicle>
    <vehicle id="bicycle51" type="bicycle_bicycle" depart="329.00">
        <route edges="RidGa_2_1 TorPl_2_3 HunSt_1_2"/>
    </vehicle>
    <vehicle id="bicycle52" type="bicycle_bicycle" depart="329.00">
        <route edges="CheMe_1_1 TorPl_1_3 GowSt_2_2 GowSt_2_3"/>
    </vehicle>
    <vehicle id="bicycle53" type="bicycle_bicycle" depart="335.00">
        <route edges="RidGa_2_1 TorPl_1_3 TorPl_1_4 BynPl_1_1 BynPl_1_2 BynPl_1_3 GorSq_2_3"/>
    </vehicle>
    <vehicle id="bicycle54" type="bicycle_bicycle" depart="339.00">
        <route edges="CheMe_1_1 TorPl_1_3 TorPl_1_4 MalSt_1_1"/>
    </vehicle>
    <vehicle id="bicycle55" type="bicycle_bicycle" depart="348.00">
        <route edges="GorSq_2_1 GorSq_2_2 BynPl_2_1 BynPl_2_2 BynPl_2_3 TorPl_2_1 GowSt_2_2 GowSt_2_3"/>
    </vehicle>
    <vehicle id="bicycle56" type="bicycle_bicycle" depart="352.00">
        <route edges="RidGa_2_1 TorPl_1_3 TorPl_1_4 BynPl_1_1 BynPl_1_2 BynPl_1_3 GorSq_1_2 GorSq_1_3"/>
    </vehicle>
    <vehicle id="bicycle57" type="bicycle_bicycle" depart="355.00">
        <route edges="HunSt_2_1 TorPl_1_2 TorPl_1_3 TorPl_1_4 MalSt_1_1"/>
    </vehicle>
    <vehicle id="bicycle58" type="bicycle_bicycle" depart="367.00">
        <route edges="UniSt_1_1 GowSt_1_3 TorPl_1_4 BynPl_1_1 BynPl_1_2 BynPl_1_3 GorSq_1_2 GorSq_1_3"/>
    </vehicle>
    <vehicle id="bicycle59" type="bicycle_bicycle" depart="367.00">
        <route edges="HunSt_2_1 TorPl_1_2 TorPl_1_3 TorPl_2_2 TorPl_2_3 HunSt_1_2"/>
    </vehicle>
    <vehicle id="bicycle60" type="bicycle_bicycle" depart="369.00">
        <route edges="TorPl_1_1 TorPl_1_2 TorPl_1_3 GowSt_1_4"/>
    </vehicle>
    <vehicle id="bicycle61" type="bicycle_bicycle" depart="376.00">
        <route edges="GowSt_2_1 TorPl_1_4 BynPl_1_1 BynPl_1_2 BynPl_1_3 BynPl_2_1 BynPl_2_2 BynPl_2_3 TorPl_2_1 GowSt_1_4"/>
    </vehicle>
    <vehicle id="bicycle62" type="bicycle_bicycle" depart="380.00">
        <route edges="GowSt_1_1 GowSt_1_2 GowSt_1_3 TorPl_2_2 TorPl_2_3 TorPl_2_4"/>
    </vehicle>
    <vehicle id="bicycle63" type="bicycle_bicycle" depart="381.00">
        <route edges="CheMe_1_1 TorPl_1_3 GowSt_1_4"/>
    </vehicle>
    <vehicle id="bicycle64" type="bicycle_bicycle" depart="386.00">
        <route edges="HunSt_1_1 TorPl_1_2 TorPl_1_3 GowSt_2_2 GowSt_2_3"/>
    </vehicle>
    <vehicle id="bicycle65" type="bicycle_bicycle" depart="414.00">
        <route edges="GorSq_2_1 GorSq_2_2 GorSq_1_2 GorSq_1_3"/>
    </vehicle>
    <vehicle id="bicycle66" type="bicycle_bicycle" depart="420.00">
        <route edges="CheMe_1_1 TorPl_1_3 TorPl_1_4 BynPl_1_1 BynPl_1_2 BynPl_1_3 GorSq_1_2 GorSq_1_3"/>
    </vehicle>
    <vehicle id="bicycle67" type="bicycle_bicycle" depart="424.00">
        <route edges="HunSt_2_1 TorPl_1_2 TorPl_1_3 GowSt_2_2 GowSt_2_3"/>
    </vehicle>
    <vehicle id="bicycle68" type="bicycle_bicycle" depart="431.00">
        <route edges="TorPl_1_1 TorPl_1_2 TorPl_1_3 GowSt_1_4"/>
    </vehicle>
    <vehicle id="bicycle69" type="bicycle_bicycle" depart="449.00">
        <route edges="GorSq_1_1 BynPl_2_1 BynPl_2_2 BynPl_2_3 BynPl_1_1 BynPl_1_2 BynPl_1_3 GorSq_2_3"/>
    </vehicle>
    <vehicle id="bicycle70" type="bicycle_bicycle" depart="451.00">
        <route edges="UniSt_1_1 GowSt_1_3 TorPl_2_2 TorPl_2_3 TorPl_2_4"/>
    </vehicle>
    <vehicle id="bicycle71" type="bicycle_bicycle" depart="454.00">
        <route edges="HunSt_1_1 TorPl_1_2 TorPl_1_3 TorPl_1_4 BynPl_1_1 BynPl_1_2 BynPl_1_3 GorSq_2_3"/>
    </vehicle>
    <vehicle id="bicycle72" type="bicycle_bicycle" depart="456.00">
        <route edges="MalSt_2_1 TorPl_2_1 GowSt_1_4"/>
    </vehicle>
    <vehicle id="bicycle73" type="bicycle_bicycle" depart="457.00">
        <route edges="HunSt_2_1 TorPl_1_2 TorPl_1_3 TorPl_1_4 MalSt_1_1"/>
    </vehicle>
    <vehicle id="bicycle74" type="bicycle_bicycle" depart="460.00">
        <route edges="GowSt_1_1 GowSt_1_2 GowSt_1_3 TorPl_2_2 TorPl_2_3 HunSt_1_2"/>
    </vehicle>
    <vehicle id="bicycle75" type="bicycle_bicycle" depart="467.00">
        <route edges="HunSt_1_1 TorPl_2_4"/>
    </vehicle>
    <vehicle id="bicycle76" type="bicycle_bicycle" depart="473.00">
        <route edges="MalSt_2_1 TorPl_2_1 GowSt_2_2 GowSt_2_3"/>
    </vehicle>
    <vehicle id="bicycle77" type="bicycle_bicycle" depart="478.00">
        <route edges="UniSt_1_1 GowSt_2_3"/>
    </vehicle>
    <vehicle id="bicycle78" type="bicycle_bicycle" depart="484.00">
        <route edges="RidGa_2_1 TorPl_2_3 HunSt_1_2"/>
    </vehicle>
    <vehicle id="bicycle79" type="bicycle_bicycle" depart="488.00">
        <route edges="HunSt_2_1 TorPl_1_2 TorPl_1_3 TorPl_1_4 BynPl_1_1 BynPl_1_2 BynPl_1_3 GorSq_1_2 GorSq_1_3"/>
    </vehicle>
    <vehicle id="bicycle80" type="bicycle_bicycle" depart="488.00">
        <route edges="RidGa_2_1 TorPl_1_3 TorPl_1_4 BynPl_1_1 BynPl_1_2 BynPl_1_3 GorSq_2_3"/>
    </vehicle>
    <vehicle id="bicycle81" type="bicycle_bicycle" depart="506.00">
        <route edges="GorSq_2_1 GorSq_2_2 BynPl_2_1 BynPl_2_2 BynPl_2_3 TorPl_2_1 TorPl_2_2 TorPl_2_3 HunSt_1_2"/>
    </vehicle>
    <vehicle id="bicycle82" type="bicycle_bicycle" depart="507.00">
        <route edges="RidGa_2_1 TorPl_1_3 TorPl_1_4 MalSt_1_1"/>
    </vehicle>
    <vehicle id="bicycle83" type="bicycle_bicycle" depart="510.00">
        <route edges="TorPl_1_1 TorPl_1_2 TorPl_1_3 GowSt_1_4"/>
    </vehicle>
    <vehicle id="bicycle84" type="bicycle_bicycle" depart="513.00">
        <route edges="GowSt_2_1 TorPl_2_2 TorPl_2_3 TorPl_2_4"/>
    </vehicle>
    <vehicle id="bicycle85" type="bicycle_bicycle" depart="522.00">
        <route edges="RidGa_2_1 TorPl_2_3 TorPl_2_4"/>
    </vehicle>
    <vehicle id="bicycle86" type="bicycle_bicycle" depart="524.00">
        <route edges="GowSt_2_1 TorPl_1_4 BynPl_1_1 BynPl_1_2 BynPl_1_3 GorSq_2_3"/>
    </vehicle>
    <vehicle id="bicycle87" type="bicycle_bicycle" depart="546.00">
        <route edges="MalSt_2_1 BynPl_1_1 BynPl_1_2 BynPl_1_3 GorSq_1_2 GorSq_1_3"/>
    </vehicle>
    <vehicle id="bicycle88" type="bicycle_bicycle" depart="548.00">
        <route edges="CheMe_1_1 TorPl_1_3 GowSt_2_2 GowSt_2_3"/>
    </vehicle>
    <vehicle id="bicycle89" type="bicycle_bicycle" depart="553.00">
        <route edges="GorSq_2_1 GorSq_2_2 BynPl_2_1 BynPl_2_2 BynPl_2_3 MalSt_1_1"/>
    </vehicle>
    <vehicle id="bicycle90" type="bicycle_bicycle" depart="560.00">
        <route edges="GorSq_2_1 GorSq_2_2 GorSq_1_2 GorSq_1_3"/>
    </vehicle>
    <vehicle id="bicycle91" type="bicycle_bicycle" depart="561.00">
        <route edges="HunSt_1_1 TorPl_1_2 TorPl_1_3 GowSt_1_4"/>
    </vehicle>
    <vehicle id="bicycle92" type="bicycle_bicycle" depart="561.00">
        <route edges="UniSt_1_1 GowSt_1_3 TorPl_2_2 TorPl_2_3 TorPl_2_4"/>
    </vehicle>
    <vehicle id="bicycle93" type="bicycle_bicycle" depart="572.00">
        <route edges="TorPl_1_1 TorPl_1_2 TorPl_1_3 GowSt_1_4"/>
    </vehicle>
    <vehicle id="bicycle94" type="bicycle_bicycle" depart="577.00">
        <route edges="GorSq_1_1 BynPl_2_1 BynPl_2_2 BynPl_2_3 TorPl_2_1 TorPl_2_2 TorPl_2_3 HunSt_1_2"/>
    </vehicle>
    <vehicle id="bicycle95" type="bicycle_bicycle" depart="583.00">
        <route edges="GorSq_2_1 GorSq_2_2 BynPl_2_1 BynPl_2_2 BynPl_2_3 TorPl_2_1 TorPl_2_2 TorPl_2_3 TorPl_2_4"/>
    </vehicle>
    <vehicle id="bicycle96" type="bicycle_bicycle" depart="583.00">
        <route edges="UniSt_1_1 GowSt_1_3 TorPl_2_2 TorPl_2_3 HunSt_1_2"/>
    </vehicle>
    <vehicle id="bicycle97" type="bicycle_bicycle" depart="585.00">
        <route edges="RidGa_2_1 TorPl_1_3 GowSt_2_2 GowSt_2_3"/>
    </vehicle>
    <vehicle id="bicycle98" type="bicycle_bicycle" depart="588.00">
        <route edges="GorSq_1_1 GorSq_1_2 GorSq_1_3"/>
    </vehicle>
    <vehicle id="bicycle99" type="bicycle_bicycle" depart="590.00">
        <route edges="HunSt_1_1 TorPl_1_2 TorPl_1_3 TorPl_1_4 BynPl_1_1 BynPl_1_2 BynPl_1_3 GorSq_2_3"/>
    </vehicle>
    <vehicle id="bicycle100" type="bicycle_bicycle" depart="605.00">
        <route edges="HunSt_2_1 TorPl_1_2 TorPl_1_3 GowSt_2_2 GowSt_2_3"/>
    </vehicle>
    <vehicle id="bicycle101" type="bicycle_bicycle" depart="605.00">
        <route edges="HunSt_2_1 TorPl_1_2 TorPl_1_3 TorPl_2_2 TorPl_2_3 HunSt_1_2"/>
    </vehicle>
    <vehicle id="bicycle102" type="bicycle_bicycle" depart="616.00">
        <route edges="RidGa_2_1 TorPl_2_3 TorPl_2_4"/>
    </vehicle>
    <vehicle id="bicycle103" type="bicycle_bicycle" depart="662.00">
        <route edges="RidGa_2_1 TorPl_2_3 HunSt_1_2"/>
    </vehicle>
    <vehicle id="bicycle104" type="bicycle_bicycle" depart="663.00">
        <route edges="MalSt_2_1 TorPl_2_1 TorPl_1_4 MalSt_1_1"/>
    </vehicle>
    <vehicle id="bicycle105" type="bicycle_bicycle" depart="665.00">
        <route edges="UniSt_1_1 GowSt_2_3"/>
    </vehicle>
    <vehicle id="bicycle106" type="bicycle_bicycle" depart="673.00">
        <route edges="GorSq_1_1 BynPl_2_1 BynPl_2_2 BynPl_2_3 TorPl_2_1 GowSt_1_4"/>
    </vehicle>
    <vehicle id="bicycle107" type="bicycle_bicycle" depart="677.00">
        <route edges="CheMe_1_1 TorPl_1_3 TorPl_1_4 MalSt_1_1"/>
    </vehicle>
    <vehicle id="bicycle108" type="bicycle_bicycle" depart="681.00">
        <route edges="TorPl_1_1 TorPl_1_2 TorPl_1_3 TorPl_1_4 BynPl_1_1 BynPl_1_2 BynPl_1_3 GorSq_1_2 GorSq_1_3"/>
    </vehicle>
    <vehicle id="bicycle109" type="bicycle_bicycle" depart="689.00">
        <route edges="GorSq_2_1 GorSq_2_2 BynPl_2_1 BynPl_2_2 BynPl_2_3 TorPl_2_1 TorPl_2_2 TorPl_2_3 HunSt_1_2"/>
    </vehicle>
    <vehicle id="bicycle110" type="bicycle_bicycle" depart="707.00">
        <route edges="GorSq_1_1 BynPl_2_1 BynPl_2_2 BynPl_2_3 TorPl_2_1 GowSt_1_4"/>
    </vehicle>
    <vehicle id="bicycle111" type="bicycle_bicycle" depart="712.00">
        <route edges="RidGa_2_1 TorPl_1_3 GowSt_2_2 GowSt_2_3"/>
    </vehicle>
    <vehicle id="bicycle112" type="bicycle_bicycle" depart="717.00">
        <route edges="GorSq_2_1 GorSq_2_2 BynPl_2_1 BynPl_2_2 BynPl_2_3 MalSt_1_1"/>
    </vehicle>
    <vehicle id="bicycle113" type="bicycle_bicycle" depart="717.00">
        <route edges="HunSt_1_1 TorPl_1_2 TorPl_1_3 TorPl_1_4 BynPl_1_1 BynPl_1_2 BynPl_1_3 GorSq_1_2 GorSq_1_3"/>
    </vehicle>
    <vehicle id="bicycle114" type="bicycle_bicycle" depart="724.00">
        <route edges="TorPl_1_1 TorPl_1_2 TorPl_1_3 TorPl_1_4 MalSt_1_1"/>
    </vehicle>
    <vehicle id="bicycle115" type="bicycle_bicycle" depart="726.00">
        <route edges="HunSt_2_1 TorPl_1_2 TorPl_1_3 TorPl_1_4 BynPl_1_1 BynPl_1_2 BynPl_1_3 GorSq_2_3"/>
    </vehicle>
    <vehicle id="bicycle116" type="bicycle_bicycle" depart="726.00">
        <route edges="HunSt_2_1 TorPl_1_2 TorPl_1_3 TorPl_1_4 MalSt_1_1"/>
    </vehicle>
    <vehicle id="bicycle117" type="bicycle_bicycle" depart="736.00">
        <route edges="HunSt_2_1 TorPl_1_2 TorPl_1_3 GowSt_2_2 GowSt_2_3"/>
    </vehicle>
    <vehicle id="bicycle118" type="bicycle_bicycle" depart="749.00">
        <route edges="GowSt_2_1 TorPl_2_2 TorPl_2_3 HunSt_1_2"/>
    </vehicle>
    <vehicle id="bicycle119" type="bicycle_bicycle" depart="752.00">
        <route edges="GorSq_2_1 GorSq_2_2 GorSq_1_2 GorSq_1_3"/>
    </vehicle>
    <vehicle id="bicycle120" type="bicycle_bicycle" depart="758.00">
        <route edges="GorSq_1_1 GorSq_1_2 GorSq_1_3"/>
    </vehicle>
    <vehicle id="bicycle121" type="bicycle_bicycle" depart="771.00">
        <route edges="GorSq_1_1 BynPl_2_1 BynPl_2_2 BynPl_2_3 TorPl_2_1 TorPl_2_2 TorPl_2_3 TorPl_2_4"/>
    </vehicle>
    <vehicle id="bicycle122" type="bicycle_bicycle" depart="806.00">
        <route edges="MalSt_2_1 TorPl_2_1 GowSt_1_4"/>
    </vehicle>
    <vehicle id="bicycle123" type="bicycle_bicycle" depart="815.00">
        <route edges="GorSq_1_1 BynPl_2_1 BynPl_2_2 BynPl_2_3 TorPl_2_1 TorPl_2_2 TorPl_2_3 TorPl_2_4"/>
    </vehicle>
    <vehicle id="bicycle124" type="bicycle_bicycle" depart="819.00">
        <route edges="GowSt_2_1 TorPl_1_4 BynPl_1_1 BynPl_1_2 BynPl_1_3 GorSq_2_3"/>
    </vehicle>
    <vehicle id="bicycle125" type="bicycle_bicycle" depart="819.00">
        <route edges="GowSt_2_1 TorPl_1_4 BynPl_1_1 BynPl_1_2 BynPl_1_3 BynPl_2_1 BynPl_2_2 BynPl_2_3 TorPl_2_1 GowSt_1_4"/>
    </vehicle>
    <vehicle id="bicycle126" type="bicycle_bicycle" depart="821.00">
        <route edges="GowSt_1_1 GowSt_1_2 GowSt_1_3 TorPl_1_4 BynPl_1_1 BynPl_1_2 BynPl_1_3 GorSq_1_2 GorSq_1_3"/>
    </vehicle>
    <vehicle id="bicycle127" type="bicycle_bicycle" depart="821.00">
        <route edges="HunSt_1_1 HunSt_1_2"/>
    </vehicle>
    <vehicle id="bicycle128" type="bicycle_bicycle" depart="829.00">
        <route edges="HunSt_1_1 TorPl_1_2 TorPl_1_3 TorPl_1_4 BynPl_1_1 BynPl_1_2 BynPl_1_3 GorSq_2_3"/>
    </vehicle>
    <vehicle id="bicycle129" type="bicycle_bicycle" depart="831.00">
        <route edges="UniSt_1_1 GowSt_1_3 TorPl_1_4 BynPl_1_1 BynPl_1_2 BynPl_1_3 GorSq_2_3"/>
    </vehicle>
    <vehicle id="bicycle130" type="bicycle_bicycle" depart="835.00">
        <route edges="GowSt_1_1 GowSt_1_2 GowSt_1_3 TorPl_1_4 BynPl_1_1 BynPl_1_2 BynPl_1_3 GorSq_2_3"/>
    </vehicle>
    <vehicle id="bicycle131" type="bicycle_bicycle" depart="837.00">
        <route edges="HunSt_2_1 TorPl_1_2 TorPl_1_3 TorPl_1_4 BynPl_1_1 BynPl_1_2 BynPl_1_3 GorSq_1_2 GorSq_1_3"/>
    </vehicle>
    <vehicle id="bicycle132" type="bicycle_bicycle" depart="859.00">
        <route edges="UniSt_1_1 GowSt_1_3 GowSt_1_4"/>
    </vehicle>
    <vehicle id="bicycle133" type="bicycle_bicycle" depart="860.00">
        <route edges="GorSq_1_1 BynPl_2_1 BynPl_2_2 BynPl_2_3 BynPl_1_1 BynPl_1_2 BynPl_1_3 GorSq_2_3"/>
    </vehicle>
    <vehicle id="bicycle134" type="bicycle_bicycle" depart="861.00">
        <route edges="HunSt_2_1 TorPl_1_2 TorPl_1_3 TorPl_2_2 TorPl_2_3 HunSt_1_2"/>
    </vehicle>
    <vehicle id="bicycle135" type="bicycle_bicycle" depart="867.00">
        <route edges="GorSq_2_1 GorSq_2_2 BynPl_2_1 BynPl_2_2 BynPl_2_3 MalSt_1_1"/>
    </vehicle>
    <vehicle id="bicycle136" type="bicycle_bicycle" depart="869.00">
        <route edges="RidGa_2_1 TorPl_1_3 TorPl_1_4 BynPl_1_1 BynPl_1_2 BynPl_1_3 GorSq_2_3"/>
    </vehicle>
    <vehicle id="bicycle137" type="bicycle_bicycle" depart="872.00">
        <route edges="MalSt_2_1 TorPl_2_1 GowSt_2_2 GowSt_2_3"/>
    </vehicle>
    <vehicle id="bicycle138" type="bicycle_bicycle" depart="873.00">
        <route edges="MalSt_2_1 BynPl_1_1 BynPl_1_2 BynPl_1_3 GorSq_2_3"/>
    </vehicle>
    <vehicle id="bicycle139" type="bicycle_bicycle" depart="894.00">
        <route edges="TorPl_1_1 TorPl_1_2 TorPl_1_3 TorPl_1_4 MalSt_1_1"/>
    </vehicle>
    <vehicle id="bicycle140" type="bicycle_bicycle" depart="895.00">
        <route edges="TorPl_1_1 TorPl_1_2 TorPl_1_3 TorPl_1_4 MalSt_1_1"/>
    </vehicle>
    <vehicle id="bicycle141" type="bicycle_bicycle" depart="904.00">
        <route edges="TorPl_1_1 TorPl_1_2 TorPl_1_3 GowSt_2_2 GowSt_2_3"/>
    </vehicle>
    <vehicle id="bicycle142" type="bicycle_bicycle" depart="914.00">
        <route edges="GorSq_1_1 BynPl_2_1 BynPl_2_2 BynPl_2_3 TorPl_2_1 TorPl_2_2 TorPl_2_3 TorPl_2_4"/>
    </vehicle>
    <vehicle id="bicycle143" type="bicycle_bicycle" depart="915.00">
        <route edges="GorSq_2_1 GorSq_2_2 BynPl_2_1 BynPl_2_2 BynPl_2_3 TorPl_2_1 TorPl_2_2 TorPl_2_3 TorPl_2_4"/>
    </vehicle>
    <vehicle id="bicycle144" type="bicycle_bicycle" depart="935.00">
        <route edges="RidGa_2_1 TorPl_2_3 TorPl_2_4"/>
    </vehicle>
    <vehicle id="bicycle145" type="bicycle_bicycle" depart="951.00">
        <route edges="HunSt_1_1 TorPl_1_2 TorPl_1_3 TorPl_1_4 MalSt_1_1"/>
    </vehicle>
    <vehicle id="bicycle146" type="bicycle_bicycle" depart="968.00">
        <route edges="GorSq_1_1 BynPl_2_1 BynPl_2_2 BynPl_2_3 TorPl_2_1 GowSt_1_4"/>
    </vehicle>
    <vehicle id="bicycle147" type="bicycle_bicycle" depart="969.00">
        <route edges="GowSt_1_1 GowSt_1_2 GowSt_1_3 TorPl_1_4 BynPl_1_1 BynPl_1_2 BynPl_1_3 GorSq_2_3"/>
    </vehicle>
    <vehicle id="bicycle148" type="bicycle_bicycle" depart="973.00">
        <route edges="GowSt_2_1 TorPl_2_2 TorPl_2_3 HunSt_1_2"/>
    </vehicle>
    <vehicle id="bicycle149" type="bicycle_bicycle" depart="975.00">
        <route edges="HunSt_2_1 TorPl_1_2 TorPl_1_3 GowSt_2_2 GowSt_2_3"/>
    </vehicle>
    <vehicle id="bicycle150" type="bicycle_bicycle" depart="1010.00">
        <route edges="HunSt_2_1 TorPl_1_2 TorPl_1_3 GowSt_2_2 GowSt_2_3"/>
    </vehicle>
    <vehicle id="bicycle151" type="bicycle_bicycle" depart="1011.00">
        <route edges="TorPl_1_1 TorPl_1_2 TorPl_1_3 TorPl_2_2 TorPl_2_3 TorPl_2_4"/>
    </vehicle>
    <vehicle id="bicycle152" type="bicycle_bicycle" depart="1016.00">
        <route edges="CheMe_1_1 TorPl_1_3 TorPl_1_4 BynPl_1_1 BynPl_1_2 BynPl_1_3 GorSq_1_2 GorSq_1_3"/>
    </vehicle>
    <vehicle id="bicycle153" type="bicycle_bicycle" depart="1018.00">
        <route edges="RidGa_2_1 TorPl_1_3 TorPl_1_4 BynPl_1_1 BynPl_1_2 BynPl_1_3 GorSq_1_2 GorSq_1_3"/>
    </vehicle>
    <vehicle id="bicycle154" type="bicycle_bicycle" depart="1019.00">
        <route edges="GowSt_2_1 GowSt_2_2 GowSt_2_3"/>
    </vehicle>
    <vehicle id="bicycle155" type="bicycle_bicycle" depart="1031.00">
        <route edges="RidGa_2_1 TorPl_1_3 TorPl_1_4 BynPl_1_1 BynPl_1_2 BynPl_1_3 GorSq_2_3"/>
    </vehicle>
    <vehicle id="bicycle156" type="bicycle_bicycle" depart="1038.00">
        <route edges="HunSt_2_1 TorPl_1_2 TorPl_1_3 TorPl_1_4 BynPl_1_1 BynPl_1_2 BynPl_1_3 GorSq_1_2 GorSq_1_3"/>
    </vehicle>
    <vehicle id="bicycle157" type="bicycle_bicycle" depart="1040.00">
        <route edges="GorSq_2_1 GorSq_2_2 BynPl_2_1 BynPl_2_2 BynPl_2_3 TorPl_2_1 TorPl_2_2 TorPl_2_3 TorPl_2_4"/>
    </vehicle>
    <vehicle id="bicycle158" type="bicycle_bicycle" depart="1046.00">
        <route edges="RidGa_2_1 TorPl_1_3 TorPl_1_4 BynPl_1_1 BynPl_1_2 BynPl_1_3 GorSq_2_3"/>
    </vehicle>
    <vehicle id="bicycle159" type="bicycle_bicycle" depart="1052.00">
        <route edges="TorPl_1_1 TorPl_1_2 TorPl_1_3 GowSt_2_2 GowSt_2_3"/>
    </vehicle>
    <vehicle id="bicycle160" type="bicycle_bicycle" depart="1055.00">
        <route edges="HunSt_1_1 TorPl_2_4"/>
    </vehicle>
    <vehicle id="bicycle161" type="bicycle_bicycle" depart="1069.00">
        <route edges="GowSt_1_1 GowSt_1_2 GowSt_1_3 TorPl_2_2 TorPl_2_3 TorPl_2_4"/>
    </vehicle>
    <vehicle id="bicycle162" type="bicycle_bicycle" depart="1079.00">
        <route edges="GowSt_2_1 TorPl_1_4 BynPl_1_1 BynPl_1_2 BynPl_1_3 GorSq_1_2 GorSq_1_3"/>
    </vehicle>
    <vehicle id="bicycle163" type="bicycle_bicycle" depart="1082.00">
        <route edges="HunSt_2_1 TorPl_1_2 TorPl_1_3 TorPl_2_2 TorPl_2_3 HunSt_1_2"/>
    </vehicle>
    <vehicle id="bicycle164" type="bicycle_bicycle" depart="1089.00">
        <route edges="MalSt_2_1 TorPl_2_1 GowSt_2_2 GowSt_2_3"/>
    </vehicle>
    <vehicle id="bicycle165" type="bicycle_bicycle" depart="1094.00">
        <route edges="GorSq_2_1 GorSq_2_2 BynPl_2_1 BynPl_2_2 BynPl_2_3 TorPl_2_1 GowSt_2_2 GowSt_2_3"/>
    </vehicle>
    <vehicle id="bicycle166" type="bicycle_bicycle" depart="1101.00">
        <route edges="TorPl_1_1 TorPl_1_2 TorPl_1_3 TorPl_2_2 TorPl_2_3 TorPl_2_4"/>
    </vehicle>
    <vehicle id="bicycle167" type="bicycle_bicycle" depart="1109.00">
        <route edges="UniSt_1_1 GowSt_2_3"/>
    </vehicle>
    <vehicle id="bicycle168" type="bicycle_bicycle" depart="1110.00">
        <route edges="RidGa_2_1 TorPl_1_3 GowSt_2_2 GowSt_2_3"/>
    </vehicle>
    <vehicle id="bicycle169" type="bicycle_bicycle" depart="1118.00">
        <route edges="HunSt_1_1 TorPl_2_4"/>
    </vehicle>
    <vehicle id="bicycle170" type="bicycle_bicycle" depart="1129.00">
        <route edges="GowSt_2_1 GowSt_2_2 GowSt_2_3"/>
    </vehicle>