<?xml version="1.0" encoding="UTF-8"?>

<!-- generated on 2026-02-02 18:59:10.276442 by Eclipse SUMO randomTrips.py UNKNOWN
<configuration>
    <net-file value="../networks/extended/main.net.xml"/>
    <output-trip-file value="../routes/extended/eval/50/car.trips.xml"/>
    <route-file value="../routes/extended/eval/50/car.rou.xml"/>
    <prefix value="car"/>
    <fringe-factor value="max"/>
    <seed value="50"/>
    <insertion-density value="50.0"/>
    <binomial value="100"/>
</configuration>
-->

<!-- generated on 2026-02-02T18:59:10.272029+00:00 by Eclipse SUMO duarouter 1.25.0
<duarouterConfiguration xmlns:xsi="http://www.w3.org/2001/XMLSchema-instance" xsi:noNamespaceSchemaLocation="http://sumo.dlr.de/xsd/duarouterConfiguration.xsd">

    <input>
        <net-file value="../networks/extended/main.net.xml"/>
        <route-files value="../routes/extended/eval/50/car.trips.xml"/>
    </input>

    <output>
        <output-file value="../routes/extended/eval/50/car.rou.xml"/>
        <alternatives-output value="NUL"/>
    </output>

    <time>
        <begin value="0"/>
        <end value="3600.0"/>
    </time>

    <report>
        <no-warnings value="true"/>
        <ignore-errors value="true"/>
        <no-step-log value="true"/>
    </report>

</duarouterConfiguration>
-->

<routes xmlns:xsi="http://www.w3.org/2001/XMLSchema-instance" xsi:noNamespaceSchemaLocation="http://sumo.dlr.de/xsd/routes_file.xsd">
    <vehicle id="car0" depart="0.00">
        <route edges="UniSt_1_1 GowSt_1_3 TorPl_2_2 TorPl_2_3 HunSt_1_2"/>
    </vehicle>
    <vehicle id="car1" depart="6.00">
        <route edges="GowSt_1_1 GowSt_1_2 GowSt_1_3 TorPl_2_2 TorPl_2_3 HunSt_1_2"/>
    </vehicle>
    <vehicle id="car2" depart="12.00">
        <route edges="GowSt_2_1 TorPl_2_2 TorPl_2_3 TorPl_2_4"/>
    </vehicle>
    <vehicle id="car3" depart="64.00">
        <route edges="GowSt_2_1 TorPl_2_2 TorPl_2_3 HunSt_1_2"/>
    </vehicle>
    <vehicle id="car4" depart="72.00">
        <route edges="UniSt_1_1 GowSt_1_3 TorPl_1_4 BynPl_1_1 BynPl_1_2 BynPl_1_3 GorSq_2_3"/>
    </vehicle>
    <vehicle id="car5" depart="99.00">
        <route edges="HunSt_1_1 TorPl_2_4"/>
    </vehicle>
    <vehicle id="car6" depart="108.00">
        <route edges="MalSt_2_1 BynPl_1_1 BynPl_1_2 BynPl_1_3 GorSq_1_2 GorSq_1_3"/>
    </vehicle>
    <vehicle id="car7" depart="108.00">
        <route edges="HunSt_1_1 HunSt_1_2"/>
    </vehicle>
    <vehicle id="car8" depart="127.00">
        <route edges="GowSt_1_1 GowSt_1_2 GowSt_1_3 TorPl_1_4 BynPl_1_1 BynPl_1_2 BynPl_1_3 GorSq_2_3"/>
    </vehicle>
    <vehicle id="car9" depart="133.00">
        <route edges="GowSt_1_1 GowSt_1_2 GowSt_1_3 TorPl_1_4 BynPl_1_1 BynPl_1_2 BynPl_1_3 GorSq_2_3"/>
    </vehicle>
    <vehicle id="car10" depart="159.00">
        <route edges="MalSt_2_1 BynPl_1_1 BynPl_1_2 BynPl_1_3 GorSq_2_3"/>
    </vehicle>
    <vehicle id="car11" depart="171.00">
        <route edges="UniSt_1_1 GowSt_2_3"/>
    </vehicle>
    <vehicle id="car12" depart="202.00">
        <route edges="HunSt_1_1 HunSt_1_2"/>
    </vehicle>
    <vehicle id="car13" depart="220.00">
        <route edges="UniSt_1_1 GowSt_1_3 TorPl_1_4 BynPl_1_1 BynPl_1_2 BynPl_1_3 GorSq_1_2 GorSq_1_3"/>
    </vehicle>
    <vehicle id="car14" depart="222.00">
        <route edges="GowSt_2_1 GowSt_2_2 GowSt_2_3"/>
    </vehicle>
    <vehicle id="car15" depart="232.00">
        <route edges="UniSt_1_1 GowSt_1_3 TorPl_2_2 TorPl_2_3 TorPl_2_4"/>
    </vehicle>
    <vehicle id="car16" depart="232.00">
        <route edges="MalSt_2_1 BynPl_1_1 BynPl_1_2 BynPl_1_3 GorSq_2_3"/>
    </vehicle>
    <vehicle id="car17" depart="237.00">
        <route edges="UniSt_1_1 GowSt_1_3 TorPl_1_4 BynPl_1_1 BynPl_1_2 BynPl_1_3 GorSq_2_3"/>
    </vehicle>
    <vehicle id="car18" depart="242.00">
        <route edges="UniSt_1_1 GowSt_2_3"/>
    </vehicle>
    <vehicle id="car19" depart="248.00">
        <route edges="UniSt_1_1 GowSt_2_3"/>
    </vehicle>
    <vehicle id="car20" depart="303.00">
        <route edges="UniSt_1_1 GowSt_1_3 TorPl_1_4 BynPl_1_1 BynPl_1_2 BynPl_1_3 GorSq_2_3"/>
    </vehicle>
    <vehicle id="car21" depart="312.00">
        <route edges="GowSt_1_1 GowSt_1_2 GowSt_1_3 GowSt_1_4"/>
    </vehicle>
    <vehicle id="car22" depart="327.00">
        <route edges="GowSt_1_1 GowSt_1_2 GowSt_1_3 TorPl_1_4 BynPl_1_1 BynPl_1_2 BynPl_1_3 GorSq_1_2 GorSq_1_3"/>
    </vehicle>
    <vehicle id="car23" depart="361.00">
        <route edges="GowSt_1_1 GowSt_1_2 GowSt_1_3 TorPl_2_2 TorPl_2_3 TorPl_2_4"/>
    </vehicle>
    <vehicle id="car24" depart="376.00">
        <route edges="GowSt_2_1 TorPl_1_4 BynPl_1_1 BynPl_1_2 BynPl_1_3 GorSq_1_2 GorSq_1_3"/>
    </vehicle>
    <vehicle id="car25" depart="378.00">
        <route edges="CheMe_1_1 TorPl_2_3 TorPl_2_4"/>
    </vehicle>
    <vehicle id="car26" depart="382.00">
        <route edges="UniSt_1_1 GowSt_1_3 TorPl_2_2 TorPl_2_3 TorPl_2_4"/>
    </vehicle>
    <vehicle id="car27" depart="413.00">
        <route edges="MalSt_2_1 BynPl_1_1 BynPl_1_2 BynPl_1_3 GorSq_1_2 GorSq_1_3"/>
    </vehicle>
    <vehicle id="car28" depart="413.00">
        <route edges="GowSt_2_1 TorPl_1_4 BynPl_1_1 BynPl_1_2 BynPl_1_3 GorSq_1_2 GorSq_1_3"/>
    </vehicle>
    <vehicle id="car29" depart="442.00">
        <route edges="GowSt_2_1 GowSt_2_2 GowSt_2_3"/>
    </vehicle>
    <vehicle id="car30" depart="513.00">
        <route edges="CheMe_1_1 TorPl_2_3 HunSt_1_2"/>
    </vehicle>
    <vehicle id="car31" depart="515.00">
        <route edges="HunSt_1_1 HunSt_1_2"/>
    </vehicle>
    <vehicle id="car32" depart="529.00">
        <route edges="GowSt_2_1 GowSt_2_2 GowSt_2_3"/>
    </vehicle>
    <vehicle id="car33" depart="535.00">
        <route edges="GorSq_1_1 GorSq_1_2 GorSq_1_3"/>
    </vehicle>
    <vehicle id="car34" depart="554.00">
        <route edges="GowSt_2_1 TorPl_2_2 TorPl_2_3 TorPl_2_4"/>
    </vehicle>
    <vehicle id="car35" depart="560.00">
        <route edges="UniSt_1_1 GowSt_1_3 TorPl_1_4 BynPl_1_1 BynPl_1_2 BynPl_1_3 GorSq_2_3"/>
    </vehicle>
    <vehicle id="car36" depart="560.00">
        <route edges="RidGa_2_1 TorPl_2_3 HunSt_1_2"/>
    </vehicle>
    <vehicle id="car37" depart="587.00">
        <route edges="UniSt_1_1 GowSt_1_3 TorPl_1_4 BynPl_1_1 BynPl_1_2 BynPl_1_3 GorSq_2_3"/>
    </vehicle>
    <vehicle id="car38" depart="605.00">
        <route edges="RidGa_2_1 TorPl_2_3 HunSt_1_2"/>
    </vehicle>
    <vehicle id="car39" depart="622.00">
        <route edges="RidGa_2_1 TorPl_2_3 TorPl_2_4"/>
    </vehicle>
    <vehicle id="car40" depart="624.00">
        <route edges="UniSt_1_1 GowSt_1_3 TorPl_1_4 BynPl_1_1 BynPl_1_2 BynPl_1_3 GorSq_1_2 GorSq_1_3"/>
    </vehicle>
    <vehicle id="car41" depart="665.00">
        <route edges="CheMe_1_1 TorPl_2_3 TorPl_2_4"/>
    </vehicle>
    <vehicle id="car42" depart="679.00">
        <route edges="UniSt_1_1 GowSt_1_3 TorPl_1_4 BynPl_1_1 BynPl_1_2 BynPl_1_3 GorSq_2_3"/>
    </vehicle>
    <vehicle id="car43" depart="686.00">
        <route edges="UniSt_1_1 GowSt_1_3 TorPl_2_2 TorPl_2_3 TorPl_2_4"/>
    </vehicle>
    <vehicle id="car44" depart="734.00">
        <route edges="CheMe_1_1 TorPl_2_3 HunSt_1_2"/>
    </vehicle>
    <vehicle id="car45" depart="737.00">
        <route edges="MalSt_2_1 BynPl_1_1 BynPl_1_2 BynPl_1_3 GorSq_2_3"/>
    </vehicle>
    <vehicle id="car46" depart="751.00">
        <route edges="MalSt_2_1 BynPl_1_1 BynPl_1_2 BynPl_1_3 GorSq_2_3"/>
    </vehicle>
    <vehicle id="car47" depart="757.00">
        <route edges="GowSt_2_1 TorPl_1_4 BynPl_1_1 BynPl_1_2 BynPl_1_3 GorSq_1_2 GorSq_1_3"/>
    </vehicle>
    <vehicle id="car48" depart="792.00">
        <route edges="RidGa_2_1 TorPl_2_3 HunSt_1_2"/>
    </vehicle>
    <vehicle id="car49" depart="870.00">
        <route edges="GowSt_1_1 GowSt_1_2 GowSt_1_3 TorPl_2_2 TorPl_2_3 HunSt_1_2"/>
    </vehicle>
    <vehicle id="car50" depart="917.00">
        <route edges="GowSt_2_1 TorPl_1_4 BynPl_1_1 BynPl_1_2 BynPl_1_3 GorSq_2_3"/>
    </vehicle>
    <vehicle id="car51" depart="968.00">
        <route edges="RidGa_2_1 TorPl_2_3 TorPl_2_4"/>
    </vehicle>
    <vehicle id="car52" depart="989.00">
        <route edges="GowSt_2_1 TorPl_2_2 TorPl_2_3 TorPl_2_4"/>
    </vehicle>
    <vehicle id="car53" depart="1043.00">
        <route edges="MalSt_2_1 BynPl_1_1 BynPl_1_2 BynPl_1_3 GorSq_2_3"/>
    </vehicle>
    <vehicle id="car54" depart="1091.00">
        <route edges="GorSq_1_1 GorSq_1_2 GorSq_1_3"/>
    </vehicle>
    <vehicle id="car55" depart="1097.00">
        <route edges="GowSt_1_1 GowSt_1_2 GowSt_1_3 TorPl_1_4 BynPl_1_1 BynPl_1_2 BynPl_1_3 GorSq_2_3"/>
    </vehicle>
    <vehicle id="car56" depart="1110.00">
        <route edges="GowSt_1_1 GowSt_1_2 GowSt_1_3 TorPl_2_2 TorPl_2_3 HunSt_1_2"/>
    </vehicle>
    <vehicle id="car57" depart="1124.00">
        <route edges="GowSt_2_1 TorPl_2_2 TorPl_2_3 TorPl_2_4"/>
    </vehicle>
    <vehicle id="car58" depart="1128.00">
        <route edges="MalSt_2_1 BynPl_1_1 BynPl_1_2 BynPl_1_3 GorSq_1_2 GorSq_1_3"/>
    </vehicle>
    <vehicle id="car59" depart="1138.00">
        <route edges="UniSt_1_1 GowSt_1_3 TorPl_2_2 TorPl_2_3 HunSt_1_2"/>
    </vehicle>
    <vehicle id="car60" depart="1150.00">
        <route edges="UniSt_1_1 GowSt_1_3 TorPl_2_2 TorPl_2_3 TorPl_2_4"/>
    </vehicle>
    <vehicle id="car61" depart="1169.00">
        <route edges="RidGa_2_1 TorPl_2_3 TorPl_2_4"/>
    </vehicle>
    <vehicle id="car62" depart="1175.00">
        <route edges="MalSt_2_1 BynPl_1_1 BynPl_1_2 BynPl_1_3 GorSq_1_2 GorSq_1_3"/>
    </vehicle>
    <vehicle id="car63" depart="1215.00">
        <route edges="GowSt_1_1 GowSt_1_2 GowSt_1_3 TorPl_1_4 BynPl_1_1 BynPl_1_2 BynPl_1_3 GorSq_2_3"/>
    </vehicle>
    <vehicle id="car64" depart="1216.00">
        <route edges="GowSt_2_1 TorPl_2_2 TorPl_2_3 TorPl_2_4"/>
    </vehicle>
    <vehicle id="car65" depart="1217.00">
        <route edges="GowSt_1_1 GowSt_1_2 GowSt_1_3 TorPl_1_4 BynPl_1_1 BynPl_1_2 BynPl_1_3 GorSq_2_3"/>
    </vehicle>
    <vehicle id="car66" depart="1221.00">
        <route edges="CheMe_1_1 TorPl_2_3 HunSt_1_2"/>
    </vehicle>
    <vehicle id="car67" depart="1309.00">
        <route edges="UniSt_1_1 GowSt_1_3 TorPl_1_4 BynPl_1_1 BynPl_1_2 BynPl_1_3 GorSq_2_3"/>
    </vehicle>
    <vehicle id="car68" depart="1413.00">
        <route edges="UniSt_1_1 GowSt_1_3 TorPl_1_4 BynPl_1_1 BynPl_1_2 BynPl_1_3 GorSq_1_2 GorSq_1_3"/>
    </vehicle>
    <vehicle id="car69" depart="1427.00">
        <route edges="GowSt_2_1 TorPl_2_2 TorPl_2_3 HunSt_1_2"/>
    </vehicle>
    <vehicle id="car70" depart="1433.00">
        <route edges="HunSt_1_1 HunSt_1_2"/>
    </vehicle>
    <vehicle id="car71" depart="1433.00">
        <route edges="GowSt_2_1 TorPl_2_2 TorPl_2_3 TorPl_2_4"/>
    </vehicle>
    <vehicle id="car72" depart="1437.00">
        <route edges="GowSt_1_1 GowSt_1_2 GowSt_1_3 GowSt_1_4"/>
    </vehicle>
    <vehicle id="car73" depart="1496.00">
        <route edges="CheMe_1_1 TorPl_2_3 TorPl_2_4"/>
    </vehicle>
    <vehicle id="car74" depart="1516.00">
        <route edges="RidGa_2_1 TorPl_2_3 TorPl_2_4"/>
    </vehicle>
    <vehicle id="car75" depart="1524.00">
        <route edges="GowSt_1_1 GowSt_1_2 GowSt_1_3 TorPl_2_2 TorPl_2_3 HunSt_1_2"/>
    </vehicle>
    <vehicle id="car76" depart="1541.00">
        <route edges="HunSt_1_1 HunSt_1_2"/>
    </vehicle>
    <vehicle id="car77" depart="1543.00">
        <route edges="GowSt_1_1 GowSt_1_2 GowSt_1_3 GowSt_1_4"/>
    </vehicle>
    <vehicle id="car78" depart="1548.00">
        <route edges="GowSt_1_1 GowSt_1_2 GowSt_1_3 TorPl_2_2 TorPl_2_3 TorPl_2_4"/>
    </vehicle>
    <vehicle id="car79" depart="1566.00">
        <route edges="GowSt_1_1 GowSt_1_2 GowSt_1_3 GowSt_1_4"/>
    </vehicle>
    <vehicle id="car80" depart="1568.00">
        <route edges="UniSt_1_1 GowSt_1_3 GowSt_1_4"/>
    </vehicle>
    <vehicle id="car81" depart="1576.00">
        <route edges="GorSq_1_1 GorSq_1_2 GorSq_1_3"/>
    </vehicle>
    <vehicle id="car82" depart="1589.00">
        <route edges="CheMe_1_1 TorPl_2_3 HunSt_1_2"/>
    </vehicle>
    <vehicle id="car83" depart="1589.00">
        <route edges="UniSt_1_1 GowSt_1_3 TorPl_1_4 BynPl_1_1 BynPl_1_2 BynPl_1_3 GorSq_1_2 GorSq_1_3"/>
    </vehicle>
    <vehicle id="car84" depart="1590.00">
        <route edges="UniSt_1_1 GowSt_1_3 TorPl_2_2 TorPl_2_3 TorPl_2_4"/>
    </vehicle>
    <vehicle id="car85" depart="1593.00">
        <route edges="GowSt_1_1 GowSt_1_2 GowSt_1_3 TorPl_2_2 TorPl_2_3 TorPl_2_4"/>
    </vehicle>
    <vehicle id="car86" depart="1604.00">
        <route edges="MalSt_2_1 BynPl_1_1 BynPl_1_2 BynPl_1_3 GorSq_1_2 GorSq_1_3"/>
    </vehicle>
    <vehicle id="car87" depart="1620.00">
        <route edges="GowSt_1_1 GowSt_1_2 GowSt_1_3 GowSt_1_4"/>
    </vehicle>
    <vehicle id="car88" depart="1628.00">
        <route edges="UniSt_1_1 GowSt_1_3 TorPl_2_2 TorPl_2_3 TorPl_2_4"/>
    </vehicle>
    <vehicle id="car89" depart="1629.00">
        <route edges="GowSt_2_1 TorPl_2_2 TorPl_2_3 TorPl_2_4"/>
    </vehicle>
    <vehicle id="car90" depart="1664.00">
        <route edges="MalSt_2_1 BynPl_1_1 BynPl_1_2 BynPl_1_3 GorSq_1_2 GorSq_1_3"/>
    </vehicle>
    <vehicle id="car91" depart="1665.00">
        <route edges="GowSt_1_1 GowSt_1_2 GowSt_1_3 TorPl_1_4 BynPl_1_1 BynPl_1_2 BynPl_1_3 GorSq_2_3"/>
    </vehicle>
    <vehicle id="car92" depart="1669.00">
        <route edges="MalSt_2_1 BynPl_1_1 BynPl_1_2 BynPl_1_3 GorSq_2_3"/>
    </vehicle>
    <vehicle id="car93" depart="1716.00">
        <route edges="GowSt_2_1 TorPl_1_4 BynPl_1_1 BynPl_1_2 BynPl_1_3 GorSq_1_2 GorSq_1_3"/>
    </vehicle>
    <vehicle id="car94" depart="1722.00">
        <route edges="GorSq_1_1 GorSq_1_2 GorSq_1_3"/>
    </vehicle>
    <vehicle id="car95" depart="1727.00">
        <route edges="GowSt_2_1 TorPl_2_2 TorPl_2_3 TorPl_2_4"/>
    </vehicle>
    <vehicle id="car96" depart="1756.00">
        <route edges="UniSt_1_1 GowSt_1_3 TorPl_2_2 TorPl_2_3 HunSt_1_2"/>
    </vehicle>
    <vehicle id="car97" depart="1768.00">
        <route edges="RidGa_2_1 TorPl_2_3 TorPl_2_4"/>
    </vehicle>
    <vehicle id="car98" depart="1813.00">
        <route edges="UniSt_1_1 GowSt_1_3 TorPl_2_2 TorPl_2_3 TorPl_2_4"/>
    </vehicle>
    <vehicle id="car99" depart="1832.00">
        <route edges="CheMe_1_1 TorPl_2_3 TorPl_2_4"/>
    </vehicle>
    <vehicle id="car100" depart="1853.00">
        <route edges="GowSt_1_1 GowSt_1_2 GowSt_1_3 GowSt_1_4"/>
    </vehicle>
    <vehicle id="car101" depart="1894.00">
        <route edges="RidGa_2_1 TorPl_2_3 TorPl_2_4"/>
    </vehicle>
    <vehicle id="car102" depart="1947.00">
        <route edges="UniSt_1_1 GowSt_1_3 GowSt_1_4"/>
    </vehicle>
    <vehicle id="car103" depart="1966.00">
        <route edges="UniSt_1_1 GowSt_1_3 TorPl_1_4 BynPl_1_1 BynPl_1_2 BynPl_1_3 GorSq_1_2 GorSq_1_3"/>
    </vehicle>
    <vehicle id="car104" depart="1980.00">
        <route edges="GorSq_1_1 GorSq_1_2 GorSq_1_3"/>
    </vehicle>
    <vehicle id="car105" depart="1991.00">
        <route edges="RidGa_2_1 TorPl_2_3 TorPl_2_4"/>
    </vehicle>
    <vehicle id="car106" depart="2012.00">
        <route edges="GowSt_2_1 TorPl_1_4 BynPl_1_1 BynPl_1_2 BynPl_1_3 GorSq_2_3"/>
    </vehicle>
    <vehicle id="car107" depart="2017.00">
        <route edges="GowSt_2_1 TorPl_1_4 BynPl_1_1 BynPl_1_2 BynPl_1_3 GorSq_1_2 GorSq_1_3"/>
    </vehicle>
    <vehicle id="car108" depart="2024.00">
        <route edges="UniSt_1_1 GowSt_1_3 TorPl_1_4 BynPl_1_1 BynPl_1_2 BynPl_1_3 GorSq_2_3"/>
    </vehicle>
    <vehicle id="car109" depart="2050.00">
        <route edges="GowSt_1_1 GowSt_1_2 GowSt_1_3 GowSt_1_4"/>
    </vehicle>
    <vehicle id="car110" depart="2051.00">
        <route edges="HunSt_1_1 TorPl_2_4"/>
    </vehicle>
    <vehicle id="car111" depart="2053.00">
        <route edges="RidGa_2_1 TorPl_2_3 TorPl_2_4"/>
    </vehicle>
    <vehicle id="car112" depart="2054.00">
        <route edges="GowSt_1_1 GowSt_1_2 GowSt_1_3 TorPl_2_2 TorPl_2_3 HunSt_1_2"/>
    </vehicle>
    <vehicle id="car113" depart="2098.00">
        <route edges="RidGa_2_1 TorPl_2_3 TorPl_2_4"/>
    </vehicle>
    <vehicle id="car114" depart="2110.00">
        <route edges="UniSt_1_1 GowSt_1_3 TorPl_1_4 BynPl_1_1 BynPl_1_2 BynPl_1_3 GorSq_1_2 GorSq_1_3"/>
    </vehicle>
    <vehicle id="car115" depart="2198.00">
        <route edges="MalSt_2_1 BynPl_1_1 BynPl_1_2 BynPl_1_3 GorSq_1_2 GorSq_1_3"/>
    </vehicle>
    <vehicle id="car116" depart="2250.00">
        <route edges="GowSt_1_1 GowSt_1_2 GowSt_1_3 TorPl_2_2 TorPl_2_3 TorPl_2_4"/>
    </vehicle>
    <vehicle id="car117" depart="2295.00">
        <route edges="UniSt_1_1 GowSt_1_3 TorPl_2_2 TorPl_2_3 HunSt_1_2"/>
    </vehicle>
    <vehicle id="car118" depart="2336.00">
        <route edges="GowSt_1_1 GowSt_1_2 GowSt_1_3 TorPl_2_2 TorPl_2_3 TorPl_2_4"/>
    </vehicle>
    <vehicle id="car119" depart="2357.00">
        <route edges="GowSt_1_1 GowSt_1_2 GowSt_1_3 TorPl_2_2 TorPl_2_3 TorPl_2_4"/>
    </vehicle>
    <vehicle id="car120" depart="2358.00">
        <route edges="MalSt_2_1 BynPl_1_1 BynPl_1_2 BynPl_1_3 GorSq_1_2 GorSq_1_3"/>
    </vehicle>
    <vehicle id="car121" depart="2367.00">
        <route edges="UniSt_1_1 GowSt_1_3 TorPl_1_4 BynPl_1_1 BynPl_1_2 BynPl_1_3 GorSq_1_2 GorSq_1_3"/>
    </vehicle>
    <vehicle id="car122" depart="2414.00">
        <route edges="UniSt_1_1 GowSt_1_3 TorPl_2_2 TorPl_2_3 HunSt_1_2"/>
    </vehicle>
    <vehicle id="car123" depart="2442.00">
        <route edges="GowSt_2_1 GowSt_2_2 GowSt_2_3"/>
    </vehicle>
    <vehicle id="car124" depart="2455.00">
        <route edges="UniSt_1_1 GowSt_1_3 TorPl_1_4 BynPl_1_1 BynPl_1_2 BynPl_1_3 GorSq_1_2 GorSq_1_3"/>
    </vehicle>
    <vehicle id="car125" depart="2464.00">
        <route edges="HunSt_1_1 TorPl_2_4"/>
    </vehicle>
    <vehicle id="car126" depart="2515.00">
        <route edges="GowSt_2_1 TorPl_2_2 TorPl_2_3 HunSt_1_2"/>
    </vehicle>
    <vehicle id="car127" depart="2519.00">
        <route edges="GowSt_1_1 GowSt_1_2 GowSt_1_3 GowSt_1_4"/>
    </vehicle>
    <vehicle id="car128" depart="2532.00">
        <route edges="GowSt_1_1 GowSt_1_2 GowSt_1_3 TorPl_1_4 BynPl_1_1 BynPl_1_2 BynPl_1_3 GorSq_2_3"/>
    </vehicle>
    <vehicle id="car129" depart="2549.00">
        <route edges="GowSt_1_1 GowSt_1_2 GowSt_1_3 TorPl_1_4 BynPl_1_1 BynPl_1_2 BynPl_1_3 GorSq_2_3"/>
    </vehicle>
    <vehicle id="car130" depart="2556.00">
        <route edges="GowSt_2_1 TorPl_2_2 TorPl_2_3 TorPl_2_4"/>
    </vehicle>
    <vehicle id="car131" depart="2587.00">
        <route edges="RidGa_2_1 TorPl_2_3 HunSt_1_2"/>
    </vehicle>
    <vehicle id="car132" depart="2608.00">
        <route edges="CheMe_1_1 TorPl_2_3 HunSt_1_2"/>
    </vehicle>
    <vehicle id="car133" depart="2610.00">
        <route edges="GowSt_1_1 GowSt_1_2 GowSt_1_3 GowSt_1_4"/>
    </vehicle>
    <vehicle id="car134" depart="2622.00">
        <route edges="UniSt_1_1 GowSt_1_3 TorPl_2_2 TorPl_2_3 TorPl_2_4"/>
    </vehicle>
    <vehicle id="car135" depart="2638.00">
        <route edges="UniSt_1_1 GowSt_1_3 TorPl_2_2 TorPl_2_3 TorPl_2_4"/>
    </vehicle>
    <vehicle id="car136" depart="2645.00">
        <route edges="GowSt_2_1 TorPl_1_4 BynPl_1_1 BynPl_1_2 BynPl_1_3 GorSq_2_3"/>
    </vehicle>
    <vehicle id="car137" depart="2660.00">
        <route edges="GowSt_1_1 GowSt_1_2 GowSt_1_3 GowSt_1_4"/>
    </vehicle>
    <vehicle id="car138" depart="2672.00">
        <route edges="CheMe_1_1 TorPl_2_3 TorPl_2_4"/>
    </vehicle>
    <vehicle id="car139" depart="2701.00">
        <route edges="MalSt_2_1 BynPl_1_1 BynPl_1_2 BynPl_1_3 GorSq_2_3"/>
    </vehicle>
    <vehicle id="car140" depart="2725.00">
        <route edges="UniSt_1_1 GowSt_1_3 GowSt_1_4"/>
    </vehicle>
    <vehicle id="car141" depart="2741.00">
        <route edges="GowSt_1_1 GowSt_1_2 GowSt_1_3 TorPl_1_4 BynPl_1_1 BynPl_1_2 BynPl_1_3 GorSq_1_2 GorSq_1_3"/>
    </vehicle>
    <vehicle id="car142" depart="2743.00">
        <route edges="GowSt_1_1 GowSt_1_2 GowSt_1_3 TorPl_2_2 TorPl_2_3 TorPl_2_4"/>
    </vehicle>
    <vehicle id="car143" depart="2771.00">
        <route edges="MalSt_2_1 BynPl_1_1 BynPl_1_2 BynPl_1_3 GorSq_2_3"/>
    </vehicle>
    <vehicle id="car144" depart="2792.00">
        <route edges="HunSt_1_1 HunSt_1_2"/>
    </vehicle>
    <vehicle id="car145" depart="2794.00">
        <route edges="MalSt_2_1 BynPl_1_1 BynPl_1_2 BynPl_1_3 GorSq_2_3"/>
    </vehicle>
    <vehicle id="car146" depart="2802.00">
        <route edges="RidGa_2_1 TorPl_2_3 HunSt_1_2"/>
    </vehicle>
    <vehicle id="car147" depart="2802.00">
        <route edges="RidGa_2_1 TorPl_2_3 TorPl_2_4"/>
    </vehicle>
    <vehicle id="car148" depart="2811.00">
        <route edges="UniSt_1_1 GowSt_1_3 TorPl_1_4 BynPl_1_1 BynPl_1_2 BynPl_1_3 GorSq_2_3"/>
    </vehicle>
    <vehicle id="car149" depart="2832.00">
        <route edges="RidGa_2_1 TorPl_2_3 HunSt_1_2"/>
    </vehicle>
    <vehicle id="car150" depart="2859.00">
        <route edges="GowSt_2_1 TorPl_1_4 BynPl_1_1 BynPl_1_2 BynPl_1_3 GorSq_2_3"/>
    </vehicle>
    <vehicle id="car151" depart="2868.00">
        <route edges="GowSt_1_1 GowSt_1_2 GowSt_1_3 GowSt_1_4"/>
    </vehicle>
    <vehicle id="car152" depart="2877.00">
        <route edges="RidGa_2_1 TorPl_2_3 TorPl_2_4"/>
    </vehicle>
    <vehicle id="car153" depart="2905.00">
        <route edges="HunSt_1_1 HunSt_1_2"/>
    </vehicle>
    <vehicle id="car154" depart="2907.00">
        <route edges="GowSt_1_1 GowSt_1_2 GowSt_1_3 TorPl_1_4 BynPl_1_1 BynPl_1_2 BynPl_1_3 GorSq_2_3"/>
    </vehicle>
    <vehicle id="car155" depart="2910.00">
        <route edges="RidGa_2_1 TorPl_2_3 HunSt_1_2"/>
    </vehicle>
    <vehicle id="car156" depart="2948.00">
        <route edges="GowSt_1_1 GowSt_1_2 GowSt_1_3 TorPl_2_2 TorPl_2_3 HunSt_1_2"/>
    </vehicle>
    <vehicle id="car157" depart="2963.00">
        <route edges="MalSt_2_1 BynPl_1_1 BynPl_1_2 BynPl_1_3 GorSq_2_3"/>
    </vehicle>
    <vehicle id="car158" depart="3016.00">
        <route edges="UniSt_1_1 GowSt_1_3 TorPl_2_2 TorPl_2_3 TorPl_2_4"/>
    </vehicle>
    <vehicle id="car159" depart="3018.00">
        <route edges="GowSt_2_1 TorPl_1_4 BynPl_1_1 BynPl_1_2 BynPl_1_3 GorSq_2_3"/>
    </vehicle>
    <vehicle id="car160" depart="3054.00">
        <route edges="UniSt_1_1 GowSt_1_3 GowSt_1_4"/>
    </vehicle>
    <vehicle id="car161" depart="3066.00">
        <route edges="RidGa_2_1 TorPl_2_3 TorPl_2_4"/>
    </vehicle>
    <vehicle id="car162" depart="3073.00">
        <route edges="GowSt_1_1 GowSt_1_2 GowSt_1_3 TorPl_1_4 BynPl_1_1 BynPl_1_2 BynPl_1_3 GorSq_1_2 GorSq_1_3"/>
    </vehicle>
    <vehicle id="car163" depart="3096.00">
        <route edges="UniSt_1_1 GowSt_1_3 TorPl_2_2 TorPl_2_3 HunSt_1_2"/>
    </vehicle>
    <vehicle id="car164" depart="3099.00">
        <route edges="GowSt_2_1 GowSt_2_2 GowSt_2_3"/>
    </vehicle>
    <vehicle id="car165" depart="3100.00">
        <route edges="GowSt_1_1 GowSt_1_2 GowSt_1_3 TorPl_1_4 BynPl_1_1 BynPl_1_2 BynPl_1_3 GorSq_2_3"/>
    </vehicle>
    <vehicle id="car166" depart="3106.00">
        <route edges="GowSt_2_1 TorPl_2_2 TorPl_2_3 TorPl_2_4"/>
    </vehicle>
    <vehicle id="car167" depart="3155.00">
        <route edges="GowSt_1_1 GowSt_1_2 GowSt_1_3 GowSt_1_4"/>
    </vehicle>
    <vehicle id="car168" depart="3165.00">
        <route edges="GowSt_2_1 TorPl_1_4 BynPl_1_1 BynPl_1_2 BynPl_1_3 GorSq_1_2 GorSq_1_3"/>
    </vehicle>
    <vehicle id="car169" depart="3169.00">
        <route edges="UniSt_1_1 GowSt_1_3 TorPl_2_2 TorPl_2_3 HunSt_1_2"/>
    </vehicle>
    <vehicle id="car170" depart="3180.00">
        <route edges="CheMe_1_1 TorPl_2_3 TorPl_2_4"/>
    </vehicle>
    <vehicle id="car171" depart="3182.00">
        <route edges="GowSt_2_1 TorPl_1_4 BynPl_1_1 BynPl_1_2 BynPl_1_3 GorSq_2_3"/>
    </vehicle>
    <vehicle id="car172" depart="3247.00">
        <route edges="GorSq_1_1 GorSq_1_2 GorSq_1_3"/>
    </vehicle>
    <vehicle id="car173" depart="3252.00">
        <route edges="UniSt_1_1 GowSt_1_3 TorPl_2_2 TorPl_2_3 TorPl_2_4"/>
    </vehicle>
    <vehicle id="car174" depart="3261.00">
        <route edges="GowSt_2_1 TorPl_2_2 TorPl_2_3 TorPl_2_4"/>
    </vehicle>
    <vehicle id="car175" depart="3287.00">
        <route edges="CheMe_1_1 TorPl_2_3 HunSt_1_2"/>
    </vehicle>
    <vehicle id="car176" depart="3307.00">
        <route edges="UniSt_1_1 GowSt_2_3"/>
    </vehicle>
    <vehicle id="car177" depart="3313.00">
        <route edges="GowSt_2_1 TorPl_1_4 BynPl_1_1 BynPl_1_2 BynPl_1_3 GorSq_1_2 GorSq_1_3"/>
    </vehicle>
    <vehicle id="car178" depart="3336.00">
        <route edges="GowSt_2_1 TorPl_1_4 BynPl_1_1 BynPl_1_2 BynPl_1_3 GorSq_2_3"/>
    </vehicle>
    <vehicle id="car179" depart="3344.00">
        <route edges="HunSt_1_1 HunSt_1_2"/>
    </vehicle>
    <vehicle id="car180" depart="3382.00">
        <route edges="UniSt_1_1 GowSt_1_3 GowSt_1_4"/>
    </vehicle>
    <vehicle id="car181" depart="3404.00">
        <route edges="MalSt_2_1 BynPl_1_1 BynPl_1_2 BynPl_1_3 GorSq_1_2 GorSq_1_3"/>
    </vehicle>
    <vehicle id="car182" depart="3411.00">
        <route edges="GowSt_2_1 TorPl_2_2 TorPl_2_3 HunSt_1_2"/>
    </vehicle>
    <vehicle id="car183" depart="3433.00">
        <route edges="HunSt_1_1 HunSt_1_2"/>
    </vehicle>
    <vehicle id="car184" depart="3437.00">
        <route edges="GowSt_2_1 TorPl_1_4 BynPl_1_1 BynPl_1_2 BynPl_1_3 GorSq_2_3"/>
    </vehicle>
    <vehicle id="car185" depart="3444.00">
        <route edges="UniSt_1_1 GowSt_1_3 TorPl_1_4 BynPl_1_1 BynPl_1_2 BynPl_1_3 GorSq_2_3"/>
    </vehicle>
    <vehicle id="car186" depart="3446.00">
        <route edges="GowSt_1_1 GowSt_1_2 GowSt_1_3 GowSt_1_4"/>
    </vehicle>
    <vehicle id="car187" depart="3448.00">
        <route edges="GowSt_2_1 GowSt_2_2 GowSt_2_3"/>
    </vehicle>
    <vehicle id="car188" depart="3461.00">
        <route edges="GowSt_1_1 GowSt_1_2 GowSt_1_3 TorPl_1_4 BynPl_1_1 BynPl_1_2 BynPl_1_3 GorSq_2_3"/>
    </vehicle>
    <vehicle id="car189" depart="3472.00">
        <route edges="RidGa_2_1 TorPl_2_3 HunSt_1_2"/>
    </vehicle>
    <vehicle id="car190" depart="3505.00">
        <route edges="GowSt_1_1 GowSt_1_2 GowSt_1_3 TorPl_2_2 TorPl_2_3 HunSt_1_2"/>
    </vehicle>
    <vehicle id="car191" depart="3516.00">
        <route edges="GowSt_1_1 GowSt_1_2 GowSt_1_3 TorPl_1_4 BynPl_1_1 BynPl_1_2 BynPl_1_3 GorSq_2_3"/>
    </vehicle>
    <vehicle id="car192" depart="3524.00">
        <route edges="CheMe_1_1 TorPl_2_3 TorPl_2_4"/>
    </vehicle>
    <vehicle id="car193" depart="3531.00">
        <route edges="MalSt_2_1 BynPl_1_1 BynPl_1_2 BynPl_1_3 GorSq_1_2 GorSq_1_3"/>
    </vehicle>
    <vehicle id="car194" depart="3542.00">
        <route edges="GowSt_2_1 TorPl_1_4 BynPl_1_1 BynPl_1_2 BynPl_1_3 GorSq_1_2 GorSq_1_3"/>
    </vehicle>
    <vehicle id="car195" depart="3548.00">
        <route edges="RidGa_2_1 TorPl_2_3 TorPl_2_4"/>
    </vehicle>
    <vehicle id="car196" depart="3549.00">
        <route edges="GowSt_2_1 TorPl_1_4 BynPl_1_1 BynPl_1_2 BynPl_1_3 GorSq_1_2 GorSq_1_3"/>
    </vehicle>
    <vehicle id="car197" depart="3563.00">
        <route edges="HunSt_1_1 HunSt_1_2"/>
    </vehicle>
    <vehicle id="car198" depart="3575.00">
        <route edges="RidGa_2_1 TorPl_2_3 TorPl_2_4"/>
    </vehicle>
    <vehicle id="car199" depart="3585.00">
        <route edges="RidGa_2_1 TorPl_2_3 HunSt_1_2"/>
    </vehicle>
    <vehicle id="car200" depart="3597.00">
        <route edges="UniSt_1_1 GowSt_1_3 TorPl_2_2 TorPl_2_3 HunSt_1_2"/>
    </vehicle>
</routes>
