<?xml version="1.0" encoding="UTF-8"?>

<!-- generated on 2026-02-02 17:16:28.419262 by Eclipse SUMO randomTrips.py UNKNOWN
<configuration>
    <net-file value="../networks/extended/main.net.xml"/>
    <output-trip-file value="../routes/extended/train/6215/car.trips.xml"/>
    <route-file value="../routes/extended/train/6215/car.rou.xml"/>
    <prefix value="car"/>
    <fringe-factor value="max"/>
    <seed value="6215"/>
    <insertion-density value="100.0"/>
    <binomial value="100"/>
</configuration>
-->

<!-- generated on 2026-02-02T17:16:28.413423+00:00 by Eclipse SUMO duarouter 1.25.0
<duarouterConfiguration xmlns:xsi="http://www.w3.org/2001/XMLSchema-instance" xsi:noNamespaceSchemaLocation="http://sumo.dlr.de/xsd/duarouterConfiguration.xsd">

    <input>
        <net-file value="../networks/extended/main.net.xml"/>
        <route-files value="../routes/extended/train/6215/car.trips.xml"/>
    </input>

    <output>
        <output-file value="../routes/extended/train/6215/car.rou.xml"/>
        <alternatives-output value="NUL"/>
    </output>

    <time>
        <begin value="0"/>
        <end value="3600.0"/>
    </time>

    <report>
        <no-warnings value="true"/>
        <ignore-errors value="true"/>
        <no-step-log value="true"/>
    </report>

</duarouterConfiguration>
-->

<routes xmlns:xsi="http://www.w3.org/2001/XMLSchema-instance" xsi:noNamespaceSchemaLocation="http://sumo.dlr.de/xsd/routes_file.xsd">
    <vehicle id="car0" depart="0.00">
        <route edges="GorSq_1_1 GorSq_1_2 GorSq_1_3"/>
    </vehicle>
    <vehicle id="car1" depart="13.00">
        <route edges="GorSq_1_1 GorSq_1_2 GorSq_1_3"/>
    </vehicle>
    <vehicle id="car2" depart="20.00">
        <route edges="UniSt_1_1 GowSt_1_3 TorPl_2_2 TorPl_2_3 TorPl_2_4"/>
    </vehicle>
    <vehicle id="car3" depart="46.00">
        <route edges="RidGa_2_1 TorPl_2_3 TorPl_2_4"/>
    </vehicle>
    <vehicle id="car4" depart="51.00">
        <route edges="GowSt_1_1 GowSt_1_2 GowSt_1_3 TorPl_2_2 TorPl_2_3 TorPl_2_4"/>
    </vehicle>
    <vehicle id="car5" depart="54.00">
        <route edges="HunSt_1_1 HunSt_1_2"/>
    </vehicle>
    <vehicle id="car6" depart="77.00">
        <route edges="GowSt_2_1 GowSt_2_2 GowSt_2_3"/>
    </vehicle>
    <vehicle id="car7" depart="86.00">
        <route edges="GowSt_1_1 GowSt_1_2 GowSt_1_3 TorPl_1_4 BynPl_1_1 BynPl_1_2 BynPl_1_3 GorSq_1_2 GorSq_1_3"/>
    </vehicle>
    <vehicle id="car8" depart="96.00">
        <route edges="UniSt_1_1 GowSt_1_3 TorPl_1_4 BynPl_1_1 BynPl_1_2 BynPl_1_3 GorSq_1_2 GorSq_1_3"/>
    </vehicle>
    <vehicle id="car9" depart="99.00">
        <route edges="GowSt_1_1 GowSt_1_2 GowSt_1_3 TorPl_2_2 TorPl_2_3 HunSt_1_2"/>
    </vehicle>
    <vehicle id="car10" depart="107.00">
        <route edges="GowSt_2_1 TorPl_2_2 TorPl_2_3 TorPl_2_4"/>
    </vehicle>
    <vehicle id="car11" depart="120.00">
        <route edges="GowSt_2_1 TorPl_2_2 TorPl_2_3 HunSt_1_2"/>
    </vehicle>
    <vehicle id="car12" depart="154.00">
        <route edges="UniSt_1_1 GowSt_1_3 TorPl_2_2 TorPl_2_3 HunSt_1_2"/>
    </vehicle>
    <vehicle id="car13" depart="157.00">
        <route edges="GowSt_1_1 GowSt_1_2 GowSt_1_3 TorPl_2_2 TorPl_2_3 TorPl_2_4"/>
    </vehicle>
    <vehicle id="car14" depart="175.00">
        <route edges="UniSt_1_1 GowSt_1_3 GowSt_1_4"/>
    </vehicle>
    <vehicle id="car15" depart="179.00">
        <route edges="GowSt_1_1 GowSt_1_2 GowSt_1_3 TorPl_1_4 BynPl_1_1 BynPl_1_2 BynPl_1_3 GorSq_2_3"/>
    </vehicle>
    <vehicle id="car16" depart="183.00">
        <route edges="GowSt_2_1 GowSt_2_2 GowSt_2_3"/>
    </vehicle>
    <vehicle id="car17" depart="188.00">
        <route edges="UniSt_1_1 GowSt_1_3 TorPl_1_4 BynPl_1_1 BynPl_1_2 BynPl_1_3 GorSq_1_2 GorSq_1_3"/>
    </vehicle>
    <vehicle id="car18" depart="199.00">
        <route edges="HunSt_1_1 TorPl_2_4"/>
    </vehicle>
    <vehicle id="car19" depart="213.00">
        <route edges="UniSt_1_1 GowSt_1_3 TorPl_1_4 BynPl_1_1 BynPl_1_2 BynPl_1_3 GorSq_2_3"/>
    </vehicle>
    <vehicle id="car20" depart="217.00">
        <route edges="UniSt_1_1 GowSt_1_3 TorPl_2_2 TorPl_2_3 TorPl_2_4"/>
    </vehicle>
    <vehicle id="car21" depart="224.00">
        <route edges="GowSt_1_1 GowSt_1_2 GowSt_1_3 GowSt_1_4"/>
    </vehicle>
    <vehicle id="car22" depart="240.00">
        <route edges="UniSt_1_1 GowSt_1_3 TorPl_2_2 TorPl_2_3 HunSt_1_2"/>
    </vehicle>
    <vehicle id="car23" depart="251.00">
        <route edges="GowSt_1_1 GowSt_1_2 GowSt_1_3 GowSt_1_4"/>
    </vehicle>
    <vehicle id="car24" depart="268.00">
        <route edges="GowSt_1_1 GowSt_1_2 GowSt_1_3 TorPl_1_4 BynPl_1_1 BynPl_1_2 BynPl_1_3 GorSq_2_3"/>
    </vehicle>
    <vehicle id="car25" depart="284.00">
        <route edges="GowSt_1_1 GowSt_1_2 GowSt_1_3 GowSt_1_4"/>
    </vehicle>
    <vehicle id="car26" depart="288.00">
        <route edges="MalSt_2_1 BynPl_1_1 BynPl_1_2 BynPl_1_3 GorSq_2_3"/>
    </vehicle>
    <vehicle id="car27" depart="317.00">
        <route edges="RidGa_2_1 TorPl_2_3 TorPl_2_4"/>
    </vehicle>
    <vehicle id="car28" depart="325.00">
        <route edges="UniSt_1_1 GowSt_2_3"/>
    </vehicle>
    <vehicle id="car29" depart="327.00">
        <route edges="UniSt_1_1 GowSt_1_3 TorPl_1_4 BynPl_1_1 BynPl_1_2 BynPl_1_3 GorSq_1_2 GorSq_1_3"/>
    </vehicle>
    <vehicle id="car30" depart="329.00">
        <route edges="GowSt_1_1 GowSt_1_2 GowSt_1_3 TorPl_2_2 TorPl_2_3 TorPl_2_4"/>
    </vehicle>
    <vehicle id="car31" depart="346.00">
        <route edges="RidGa_2_1 TorPl_2_3 TorPl_2_4"/>
    </vehicle>
    <vehicle id="car32" depart="370.00">
        <route edges="UniSt_1_1 GowSt_1_3 TorPl_2_2 TorPl_2_3 HunSt_1_2"/>
    </vehicle>
    <vehicle id="car33" depart="379.00">
        <route edges="GowSt_1_1 GowSt_1_2 GowSt_1_3 TorPl_1_4 BynPl_1_1 BynPl_1_2 BynPl_1_3 GorSq_2_3"/>
    </vehicle>
    <vehicle id="car34" depart="390.00">
        <route edges="GowSt_1_1 GowSt_1_2 GowSt_1_3 TorPl_2_2 TorPl_2_3 TorPl_2_4"/>
    </vehicle>
    <vehicle id="car35" depart="408.00">
        <route edges="GowSt_2_1 TorPl_2_2 TorPl_2_3 HunSt_1_2"/>
    </vehicle>
    <vehicle id="car36" depart="426.00">
        <route edges="MalSt_2_1 BynPl_1_1 BynPl_1_2 BynPl_1_3 GorSq_2_3"/>
    </vehicle>
    <vehicle id="car37" depart="432.00">
        <route edges="MalSt_2_1 BynPl_1_1 BynPl_1_2 BynPl_1_3 GorSq_2_3"/>
    </vehicle>
    <vehicle id="car38" depart="434.00">
        <route edges="RidGa_2_1 TorPl_2_3 TorPl_2_4"/>
    </vehicle>
    <vehicle id="car39" depart="435.00">
        <route edges="GowSt_1_1 GowSt_1_2 GowSt_1_3 TorPl_1_4 BynPl_1_1 BynPl_1_2 BynPl_1_3 GorSq_1_2 GorSq_1_3"/>
    </vehicle>
    <vehicle id="car40" depart="446.00">
        <route edges="MalSt_2_1 BynPl_1_1 BynPl_1_2 BynPl_1_3 GorSq_1_2 GorSq_1_3"/>
    </vehicle>
    <vehicle id="car41" depart="449.00">
        <route edges="UniSt_1_1 GowSt_1_3 TorPl_2_2 TorPl_2_3 TorPl_2_4"/>
    </vehicle>
    <vehicle id="car42" depart="450.00">
        <route edges="GowSt_2_1 TorPl_1_4 BynPl_1_1 BynPl_1_2 BynPl_1_3 GorSq_2_3"/>
    </vehicle>
    <vehicle id="car43" depart="451.00">
        <route edges="GowSt_2_1 TorPl_1_4 BynPl_1_1 BynPl_1_2 BynPl_1_3 GorSq_1_2 GorSq_1_3"/>
    </vehicle>
    <vehicle id="car44" depart="454.00">
        <route edges="HunSt_1_1 TorPl_2_4"/>
    </vehicle>
    <vehicle id="car45" depart="458.00">
        <route edges="HunSt_1_1 TorPl_2_4"/>
    </vehicle>
    <vehicle id="car46" depart="460.00">
        <route edges="UniSt_1_1 GowSt_1_3 TorPl_2_2 TorPl_2_3 TorPl_2_4"/>
    </vehicle>
    <vehicle id="car47" depart="468.00">
        <route edges="UniSt_1_1 GowSt_1_3 TorPl_2_2 TorPl_2_3 HunSt_1_2"/>
    </vehicle>
    <vehicle id="car48" depart="477.00">
        <route edges="GowSt_1_1 GowSt_1_2 GowSt_1_3 TorPl_1_4 BynPl_1_1 BynPl_1_2 BynPl_1_3 GorSq_1_2 GorSq_1_3"/>
    </vehicle>
    <vehicle id="car49" depart="480.00">
        <route edges="GowSt_1_1 GowSt_1_2 GowSt_1_3 TorPl_1_4 BynPl_1_1 BynPl_1_2 BynPl_1_3 GorSq_2_3"/>
    </vehicle>
    <vehicle id="car50" depart="487.00">
        <route edges="UniSt_1_1 GowSt_2_3"/>
    </vehicle>
    <vehicle id="car51" depart="491.00">
        <route edges="UniSt_1_1 GowSt_1_3 GowSt_1_4"/>
    </vehicle>
    <vehicle id="car52" depart="525.00">
        <route edges="HunSt_1_1 HunSt_1_2"/>
    </vehicle>
    <vehicle id="car53" depart="530.00">
        <route edges="RidGa_2_1 TorPl_2_3 HunSt_1_2"/>
    </vehicle>
    <vehicle id="car54" depart="533.00">
        <route edges="GowSt_1_1 GowSt_1_2 GowSt_1_3 TorPl_2_2 TorPl_2_3 TorPl_2_4"/>
    </vehicle>
    <vehicle id="car55" depart="534.00">
        <route edges="GowSt_2_1 TorPl_1_4 BynPl_1_1 BynPl_1_2 BynPl_1_3 GorSq_2_3"/>
    </vehicle>
    <vehicle id="car56" depart="537.00">
        <route edges="GowSt_2_1 GowSt_2_2 GowSt_2_3"/>
    </vehicle>
    <vehicle id="car57" depart="542.00">
        <route edges="MalSt_2_1 BynPl_1_1 BynPl_1_2 BynPl_1_3 GorSq_2_3"/>
    </vehicle>
    <vehicle id="car58" depart="546.00">
        <route edges="UniSt_1_1 GowSt_1_3 TorPl_1_4 BynPl_1_1 BynPl_1_2 BynPl_1_3 GorSq_1_2 GorSq_1_3"/>
    </vehicle>
    <vehicle id="car59" depart="562.00">
        <route edges="GowSt_1_1 GowSt_1_2 GowSt_1_3 TorPl_1_4 BynPl_1_1 BynPl_1_2 BynPl_1_3 GorSq_2_3"/>
    </vehicle>
    <vehicle id="car60" depart="570.00">
        <route edges="GowSt_1_1 GowSt_1_2 GowSt_1_3 GowSt_1_4"/>
    </vehicle>
    <vehicle id="car61" depart="574.00">
        <route edges="GowSt_2_1 TorPl_1_4 BynPl_1_1 BynPl_1_2 BynPl_1_3 GorSq_1_2 GorSq_1_3"/>
    </vehicle>
    <vehicle id="car62" depart="581.00">
        <route edges="GowSt_1_1 GowSt_1_2 GowSt_1_3 TorPl_1_4 BynPl_1_1 BynPl_1_2 BynPl_1_3 GorSq_1_2 GorSq_1_3"/>
    </vehicle>
    <vehicle id="car63" depart="596.00">
        <route edges="GowSt_1_1 GowSt_1_2 GowSt_1_3 TorPl_1_4 BynPl_1_1 BynPl_1_2 BynPl_1_3 GorSq_2_3"/>
    </vehicle>
    <vehicle id="car64" depart="597.00">
        <route edges="GowSt_1_1 GowSt_1_2 GowSt_1_3 TorPl_2_2 TorPl_2_3 TorPl_2_4"/>
    </vehicle>
    <vehicle id="car65" depart="603.00">
        <route edges="UniSt_1_1 GowSt_1_3 TorPl_1_4 BynPl_1_1 BynPl_1_2 BynPl_1_3 GorSq_1_2 GorSq_1_3"/>
    </vehicle>
    <vehicle id="car66" depart="616.00">
        <route edges="GowSt_2_1 GowSt_2_2 GowSt_2_3"/>
    </vehicle>
    <vehicle id="car67" depart="631.00">
        <route edges="GowSt_1_1 GowSt_1_2 GowSt_1_3 TorPl_1_4 BynPl_1_1 BynPl_1_2 BynPl_1_3 GorSq_1_2 GorSq_1_3"/>
    </vehicle>
    <vehicle id="car68" depart="654.00">
        <route edges="GowSt_1_1 GowSt_1_2 GowSt_1_3 TorPl_2_2 TorPl_2_3 TorPl_2_4"/>
    </vehicle>
    <vehicle id="car69" depart="662.00">
        <route edges="RidGa_2_1 TorPl_2_3 TorPl_2_4"/>
    </vehicle>
    <vehicle id="car70" depart="664.00">
        <route edges="GowSt_2_1 TorPl_2_2 TorPl_2_3 TorPl_2_4"/>
    </vehicle>
    <vehicle id="car71" depart="667.00">
        <route edges="GorSq_1_1 GorSq_1_2 GorSq_1_3"/>
    </vehicle>
    <vehicle id="car72" depart="669.00">
        <route edges="UniSt_1_1 GowSt_1_3 TorPl_1_4 BynPl_1_1 BynPl_1_2 BynPl_1_3 GorSq_1_2 GorSq_1_3"/>
    </vehicle>
    <vehicle id="car73" depart="679.00">
        <route edges="GowSt_2_1 TorPl_2_2 TorPl_2_3 HunSt_1_2"/>
    </vehicle>
    <vehicle id="car74" depart="680.00">
        <route edges="UniSt_1_1 GowSt_1_3 GowSt_1_4"/>
    </vehicle>
    <vehicle id="car75" depart="700.00">
        <route edges="GowSt_2_1 GowSt_2_2 GowSt_2_3"/>
    </vehicle>
    <vehicle id="car76" depart="706.00">
        <route edges="MalSt_2_1 BynPl_1_1 BynPl_1_2 BynPl_1_3 GorSq_1_2 GorSq_1_3"/>
    </vehicle>
    <vehicle id="car77" depart="712.00">
        <route edges="GowSt_1_1 GowSt_1_2 GowSt_1_3 TorPl_2_2 TorPl_2_3 HunSt_1_2"/>
    </vehicle>
    <vehicle id="car78" depart="716.00">
        <route edges="GowSt_2_1 TorPl_1_4 BynPl_1_1 BynPl_1_2 BynPl_1_3 GorSq_2_3"/>
    </vehicle>
    <vehicle id="car79" depart="723.00">
        <route edges="HunSt_1_1 TorPl_2_4"/>
    </vehicle>
    <vehicle id="car80" depart="725.00">
        <route edges="MalSt_2_1 BynPl_1_1 BynPl_1_2 BynPl_1_3 GorSq_1_2 GorSq_1_3"/>
    </vehicle>
    <vehicle id="car81" depart="731.00">
        <route edges="GowSt_2_1 TorPl_1_4 BynPl_1_1 BynPl_1_2 BynPl_1_3 GorSq_2_3"/>
    </vehicle>
    <vehicle id="car82" depart="736.00">
        <route edges="CheMe_1_1 TorPl_2_3 HunSt_1_2"/>
    </vehicle>
    <vehicle id="car83" depart="743.00">
        <route edges="GowSt_2_1 TorPl_2_2 TorPl_2_3 TorPl_2_4"/>
    </vehicle>
    <vehicle id="car84" depart="754.00">
        <route edges="GowSt_1_1 GowSt_1_2 GowSt_1_3 TorPl_2_2 TorPl_2_3 HunSt_1_2"/>
    </vehicle>
    <vehicle id="car85" depart="763.00">
        <route edges="UniSt_1_1 GowSt_1_3 TorPl_2_2 TorPl_2_3 HunSt_1_2"/>
    </vehicle>
    <vehicle id="car86" depart="764.00">
        <route edges="UniSt_1_1 GowSt_2_3"/>
    </vehicle>
    <vehicle id="car87" depart="767.00">
        <route edges="RidGa_2_1 TorPl_2_3 HunSt_1_2"/>
    </vehicle>
    <vehicle id="car88" depart="772.00">
        <route edges="GowSt_2_1 TorPl_1_4 BynPl_1_1 BynPl_1_2 BynPl_1_3 GorSq_2_3"/>
    </vehicle>
    <vehicle id="car89" depart="784.00">
        <route edges="GowSt_1_1 GowSt_1_2 GowSt_1_3 TorPl_1_4 BynPl_1_1 BynPl_1_2 BynPl_1_3 GorSq_2_3"/>
    </vehicle>
    <vehicle id="car90" depart="797.00">
        <route edges="RidGa_2_1 TorPl_2_3 TorPl_2_4"/>
    </vehicle>
    <vehicle id="car91" depart="807.00">
        <route edges="MalSt_2_1 BynPl_1_1 BynPl_1_2 BynPl_1_3 GorSq_2_3"/>
    </vehicle>
    <vehicle id="car92" depart="808.00">
        <route edges="GowSt_2_1 TorPl_1_4 BynPl_1_1 BynPl_1_2 BynPl_1_3 GorSq_1_2 GorSq_1_3"/>
    </vehicle>
    <vehicle id="car93" depart="811.00">
        <route edges="RidGa_2_1 TorPl_2_3 TorPl_2_4"/>
    </vehicle>
    <vehicle id="car94" depart="818.00">
        <route edges="GowSt_1_1 GowSt_1_2 GowSt_1_3 GowSt_1_4"/>
    </vehicle>
    <vehicle id="car95" depart="819.00">
        <route edges="HunSt_1_1 HunSt_1_2"/>
    </vehicle>
    <vehicle id="car96" depart="832.00">
        <route edges="CheMe_1_1 TorPl_2_3 HunSt_1_2"/>
    </vehicle>
    <vehicle id="car97" depart="848.00">
        <route edges="GowSt_1_1 GowSt_1_2 GowSt_1_3 GowSt_1_4"/>
    </vehicle>
    <vehicle id="car98" depart="853.00">
        <route edges="RidGa_2_1 TorPl_2_3 HunSt_1_2"/>
    </vehicle>
    <vehicle id="car99" depart="858.00">
        <route edges="UniSt_1_1 GowSt_1_3 TorPl_1_4 BynPl_1_1 BynPl_1_2 BynPl_1_3 GorSq_1_2 GorSq_1_3"/>
    </vehicle>
    <vehicle id="car100" depart="864.00">
        <route edges="UniSt_1_1 GowSt_2_3"/>
    </vehicle>
    <vehicle id="car101" depart="874.00">
        <route edges="GowSt_1_1 GowSt_1_2 GowSt_1_3 TorPl_2_2 TorPl_2_3 HunSt_1_2"/>
    </vehicle>
    <vehicle id="car102" depart="884.00">
        <route edges="MalSt_2_1 BynPl_1_1 BynPl_1_2 BynPl_1_3 GorSq_1_2 GorSq_1_3"/>
    </vehicle>
    <vehicle id="car103" depart="904.00">
        <route edges="UniSt_1_1 GowSt_1_3 GowSt_1_4"/>
    </vehicle>
    <vehicle id="car104" depart="911.00">
        <route edges="GowSt_1_1 GowSt_1_2 GowSt_1_3 TorPl_2_2 TorPl_2_3 HunSt_1_2"/>
    </vehicle>
    <vehicle id="car105" depart="919.00">
        <route edges="MalSt_2_1 BynPl_1_1 BynPl_1_2 BynPl_1_3 GorSq_2_3"/>
    </vehicle>
    <vehicle id="car106" depart="925.00">
        <route edges="UniSt_1_1 GowSt_1_3 TorPl_1_4 BynPl_1_1 BynPl_1_2 BynPl_1_3 GorSq_2_3"/>
    </vehicle>
    <vehicle id="car107" depart="925.00">
        <route edges="GowSt_2_1 TorPl_2_2 TorPl_2_3 HunSt_1_2"/>
    </vehicle>
    <vehicle id="car108" depart="931.00">
        <route edges="GowSt_1_1 GowSt_1_2 GowSt_1_3 TorPl_1_4 BynPl_1_1 BynPl_1_2 BynPl_1_3 GorSq_2_3"/>
    </vehicle>
    <vehicle id="car109" depart="932.00">
        <route edges="MalSt_2_1 BynPl_1_1 BynPl_1_2 BynPl_1_3 GorSq_2_3"/>
    </vehicle>
    <vehicle id="car110" depart="933.00">
        <route edges="GowSt_2_1 TorPl_1_4 BynPl_1_1 BynPl_1_2 BynPl_1_3 GorSq_2_3"/>
    </vehicle>
    <vehicle id="car111" depart="933.00">
        <route edges="GowSt_1_1 GowSt_1_2 GowSt_1_3 TorPl_1_4 BynPl_1_1 BynPl_1_2 BynPl_1_3 GorSq_2_3"/>
    </vehicle>
    <vehicle id="car112" depart="943.00">
        <route edges="GowSt_1_1 GowSt_1_2 GowSt_1_3 TorPl_2_2 TorPl_2_3 TorPl_2_4"/>
    </vehicle>
    <vehicle id="car113" depart="944.00">
        <route edges="GowSt_1_1 GowSt_1_2 GowSt_1_3 TorPl_1_4 BynPl_1_1 BynPl_1_2 BynPl_1_3 GorSq_1_2 GorSq_1_3"/>
    </vehicle>
    <vehicle id="car114" depart="953.00">
        <route edges="UniSt_1_1 GowSt_1_3 TorPl_1_4 BynPl_1_1 BynPl_1_2 BynPl_1_3 GorSq_2_3"/>
    </vehicle>
    <vehicle id="car115" depart="962.00">
        <route edges="GowSt_2_1 TorPl_2_2 TorPl_2_3 TorPl_2_4"/>
    </vehicle>
    <vehicle id="car116" depart="964.00">
        <route edges="GowSt_1_1 GowSt_1_2 GowSt_1_3 GowSt_1_4"/>
    </vehicle>
    <vehicle id="car117" depart="966.00">
        <route edges="CheMe_1_1 TorPl_2_3 HunSt_1_2"/>
    </vehicle>
    <vehicle id="car118" depart="971.00">
        <route edges="GowSt_1_1 GowSt_1_2 GowSt_1_3 TorPl_1_4 BynPl_1_1 BynPl_1_2 BynPl_1_3 GorSq_2_3"/>
    </vehicle>
    <vehicle id="car119" depart="975.00">
        <route edges="CheMe_1_1 TorPl_2_3 HunSt_1_2"/>
    </vehicle>
    <vehicle id="car120" depart="980.00">
        <route edges="UniSt_1_1 GowSt_1_3 TorPl_2_2 TorPl_2_3 TorPl_2_4"/>
    </vehicle>
    <vehicle id="car121" depart="995.00">
        <route edges="GowSt_2_1 TorPl_2_2 TorPl_2_3 HunSt_1_2"/>
    </vehicle>
    <vehicle id="car122" depart="1002.00">
        <route edges="HunSt_1_1 TorPl_2_4"/>
    </vehicle>
    <vehicle id="car123" depart="1003.00">
        <route edges="GowSt_2_1 TorPl_1_4 BynPl_1_1 BynPl_1_2 BynPl_1_3 GorSq_2_3"/>
    </vehicle>
    <vehicle id="car124" depart="1036.00">
        <route edges="GowSt_1_1 GowSt_1_2 GowSt_1_3 TorPl_2_2 TorPl_2_3 TorPl_2_4"/>
    </vehicle>
    <vehicle id="car125" depart="1049.00">
        <route edges="UniSt_1_1 GowSt_1_3 GowSt_1_4"/>
    </vehicle>
    <vehicle id="car126" depart="1051.00">
        <route edges="MalSt_2_1 BynPl_1_1 BynPl_1_2 BynPl_1_3 GorSq_2_3"/>
    </vehicle>
    <vehicle id="car127" depart="1059.00">
        <route edges="GowSt_2_1 TorPl_2_2 TorPl_2_3 HunSt_1_2"/>
    </vehicle>
    <vehicle id="car128" depart="1062.00">
        <route edges="UniSt_1_1 GowSt_1_3 TorPl_2_2 TorPl_2_3 TorPl_2_4"/>
    </vehicle>
    <vehicle id="car129" depart="1070.00">
        <route edges="HunSt_1_1 HunSt_1_2"/>
    </vehicle>
    <vehicle id="car130" depart="1073.00">
        <route edges="GowSt_2_1 GowSt_2_2 GowSt_2_3"/>
    </vehicle>
    <vehicle id="car131" depart="1075.00">
        <route edges="UniSt_1_1 GowSt_2_3"/>
    </vehicle>
    <vehicle id="car132" depart="1080.00">
        <route edges="MalSt_2_1 BynPl_1_1 BynPl_1_2 BynPl_1_3 GorSq_1_2 GorSq_1_3"/>
    </vehicle>
    <vehicle id="car133" depart="1090.00">
        <route edges="GowSt_2_1 TorPl_1_4 BynPl_1_1 BynPl_1_2 BynPl_1_3 GorSq_2_3"/>
    </vehicle>
    <vehicle id="car134" depart="1099.00">
        <route edges="RidGa_2_1 TorPl_2_3 TorPl_2_4"/>
    </vehicle>
    <vehicle id="car135" depart="1102.00">
        <route edges="GowSt_2_1 TorPl_1_4 BynPl_1_1 BynPl_1_2 BynPl_1_3 GorSq_2_3"/>
    </vehicle>
    <vehicle id="car136" depart="1103.00">
        <route edges="GowSt_1_1 GowSt_1_2 GowSt_1_3 TorPl_2_2 TorPl_2_3 HunSt_1_2"/>
    </vehicle>
    <vehicle id="car137" depart="1104.00">
        <route edges="UniSt_1_1 GowSt_1_3 GowSt_1_4"/>
    </vehicle>
    <vehicle id="car138" depart="1114.00">
        <route edges="GowSt_1_1 GowSt_1_2 GowSt_1_3 TorPl_1_4 BynPl_1_1 BynPl_1_2 BynPl_1_3 GorSq_1_2 GorSq_1_3"/>
    </vehicle>
    <vehicle id="car139" depart="1124.00">
        <route edges="UniSt_1_1 GowSt_1_3 TorPl_2_2 TorPl_2_3 HunSt_1_2"/>
    </vehicle>
    <vehicle id="car140" depart="1141.00">
        <route edges="GowSt_1_1 GowSt_1_2 GowSt_1_3 GowSt_1_4"/>
    </vehicle>
    <vehicle id="car141" depart="1147.00">
        <route edges="UniSt_1_1 GowSt_1_3 TorPl_1_4 BynPl_1_1 BynPl_1_2 BynPl_1_3 GorSq_1_2 GorSq_1_3"/>
    </vehicle>
    <vehicle id="car142" depart="1161.00">
        <route edges="UniSt_1_1 GowSt_1_3 GowSt_1_4"/>
    </vehicle>
    <vehicle id="car143" depart="1175.00">
        <route edges="CheMe_1_1 TorPl_2_3 HunSt_1_2"/>
    </vehicle>
    <vehicle id="car144" depart="1179.00">
        <route edges="GowSt_1_1 GowSt_1_2 GowSt_1_3 TorPl_1_4 BynPl_1_1 BynPl_1_2 BynPl_1_3 GorSq_1_2 GorSq_1_3"/>
    </vehicle>
    <vehicle id="car145" depart="1183.00">
        <route edges="RidGa_2_1 TorPl_2_3 HunSt_1_2"/>
    </vehicle>
    <vehicle id="car146" depart="1192.00">
        <route edges="HunSt_1_1 TorPl_2_4"/>
    </vehicle>
    <vehicle id="car147" depart="1211.00">
        <route edges="GowSt_2_1 TorPl_1_4 BynPl_1_1 BynPl_1_2 BynPl_1_3 GorSq_1_2 GorSq_1_3"/>
    </vehicle>
    <vehicle id="car148" depart="1216.00">
        <route edges="GowSt_2_1 TorPl_1_4 BynPl_1_1 BynPl_1_2 BynPl_1_3 GorSq_2_3"/>
    </vehicle>
    <vehicle id="car149" depart="1225.00">
        <route edges="GowSt_2_1 TorPl_2_2 TorPl_2_3 HunSt_1_2"/>
    </vehicle>
    <vehicle id="car150" depart="1234.00">
        <route edges="CheMe_1_1 TorPl_2_3 HunSt_1_2"/>
    </vehicle>
    <vehicle id="car151" depart="1244.00">
        <route edges="UniSt_1_1 GowSt_1_3 GowSt_1_4"/>
    </vehicle>
    <vehicle id="car152" depart="1257.00">
        <route edges="GowSt_1_1 GowSt_1_2 GowSt_1_3 TorPl_2_2 TorPl_2_3 HunSt_1_2"/>
    </vehicle>
    <vehicle id="car153" depart="1259.00">
        <route edges="GowSt_2_1 TorPl_1_4 BynPl_1_1 BynPl_1_2 BynPl_1_3 GorSq_1_2 GorSq_1_3"/>
    </vehicle>
    <vehicle id="car154" depart="1280.00">
        <route edges="UniSt_1_1 GowSt_1_3 TorPl_2_2 TorPl_2_3 TorPl_2_4"/>
    </vehicle>
    <vehicle id="car155" depart="1295.00">
        <route edges="GowSt_1_1 GowSt_1_2 GowSt_1_3 TorPl_1_4 BynPl_1_1 BynPl_1_2 BynPl_1_3 GorSq_1_2 GorSq_1_3"/>
    </vehicle>
    <vehicle id="car156" depart="1318.00">
        <route edges="GowSt_1_1 GowSt_1_2 GowSt_1_3 GowSt_1_4"/>
    </vehicle>
    <vehicle id="car157" depart="1324.00">
        <route edges="GorSq_1_1 GorSq_1_2 GorSq_1_3"/>
    </vehicle>
    <vehicle id="car158" depart="1324.00">
        <route edges="GowSt_1_1 GowSt_1_2 GowSt_1_3 TorPl_2_2 TorPl_2_3 TorPl_2_4"/>
    </vehicle>
    <vehicle id="car159" depart="1326.00">
        <route edges="HunSt_1_1 HunSt_1_2"/>
    </vehicle>
    <vehicle id="car160" depart="1329.00">
        <route edges="UniSt_1_1 GowSt_1_3 TorPl_1_4 BynPl_1_1 BynPl_1_2 BynPl_1_3 GorSq_2_3"/>
    </vehicle>
    <vehicle id="car161" depart="1343.00">
        <route edges="GorSq_1_1 GorSq_1_2 GorSq_1_3"/>
    </vehicle>
    <vehicle id="car162" depart="1343.00">
        <route edges="HunSt_1_1 TorPl_2_4"/>
    </vehicle>
    <vehicle id="car163" depart="1359.00">
        <route edges="RidGa_2_1 TorPl_2_3 HunSt_1_2"/>
    </vehicle>
    <vehicle id="car164" depart="1365.00">
        <route edges="GowSt_2_1 TorPl_1_4 BynPl_1_1 BynPl_1_2 BynPl_1_3 GorSq_2_3"/>
    </vehicle>
    <vehicle id="car165" depart="1371.00">
        <route edges="GowSt_2_1 TorPl_1_4 BynPl_1_1 BynPl_1_2 BynPl_1_3 GorSq_2_3"/>
    </vehicle>
    <vehicle id="car166" depart="1391.00">
        <route edges="UniSt_1_1 GowSt_1_3 TorPl_2_2 TorPl_2_3 HunSt_1_2"/>
    </vehicle>
    <vehicle id="car167" depart="1395.00">
        <route edges="GowSt_1_1 GowSt_1_2 GowSt_1_3 TorPl_1_4 BynPl_1_1 BynPl_1_2 BynPl_1_3 GorSq_2_3"/>
    </vehicle>
    <vehicle id="car168" depart="1416.00">
        <route edges="UniSt_1_1 GowSt_1_3 TorPl_2_2 TorPl_2_3 TorPl_2_4"/>
    </vehicle>
    <vehicle id="car169" depart="1418.00">
        <route edges="UniSt_1_1 GowSt_2_3"/>
    </vehicle>
    <vehicle id="car170" depart="1452.00">
        <route edges="GowSt_2_1 TorPl_1_4 BynPl_1_1 BynPl_1_2 BynPl_1_3 GorSq_2_3"/>
    </vehicle>
    <vehicle id="car171" depart="1463.00">
        <route edges="GowSt_2_1 TorPl_2_2 TorPl_2_3 HunSt_1_2"/>
    </vehicle>
    <vehicle id="car172" depart="1465.00">
        <route edges="UniSt_1_1 GowSt_1_3 TorPl_1_4 BynPl_1_1 BynPl_1_2 BynPl_1_3 GorSq_1_2 GorSq_1_3"/>
    </vehicle>
    <vehicle id="car173" depart="1469.00">
        <route edges="UniSt_1_1 GowSt_2_3"/>
    </vehicle>
    <vehicle id="car174" depart="1505.00">
        <route edges="GowSt_1_1 GowSt_1_2 GowSt_1_3 GowSt_1_4"/>
    </vehicle>
    <vehicle id="car175" depart="1516.00">
        <route edges="UniSt_1_1 GowSt_1_3 TorPl_2_2 TorPl_2_3 TorPl_2_4"/>
    </vehicle>
    <vehicle id="car176" depart="1517.00">
        <route edges="GowSt_2_1 TorPl_2_2 TorPl_2_3 TorPl_2_4"/>
    </vehicle>
    <vehicle id="car177" depart="1554.00">
        <route edges="GowSt_2_1 TorPl_1_4 BynPl_1_1 BynPl_1_2 BynPl_1_3 GorSq_1_2 GorSq_1_3"/>
    </vehicle>
    <vehicle id="car178" depart="1555.00">
        <route edges="GowSt_1_1 GowSt_1_2 GowSt_1_3 TorPl_1_4 BynPl_1_1 BynPl_1_2 BynPl_1_3 GorSq_2_3"/>
    </vehicle>
    <vehicle id="car179" depart="1561.00">
        <route edges="HunSt_1_1 HunSt_1_2"/>
    </vehicle>
    <vehicle id="car180" depart="1567.00">
        <route edges="GowSt_1_1 GowSt_1_2 GowSt_1_3 TorPl_1_4 BynPl_1_1 BynPl_1_2 BynPl_1_3 GorSq_2_3"/>
    </vehicle>
    <vehicle id="car181" depart="1569.00">
        <route edges="UniSt_1_1 GowSt_1_3 TorPl_1_4 BynPl_1_1 BynPl_1_2 BynPl_1_3 GorSq_1_2 GorSq_1_3"/>
    </vehicle>
    <vehicle id="car182" depart="1588.00">
        <route edges="GowSt_2_1 TorPl_1_4 BynPl_1_1 BynPl_1_2 BynPl_1_3 GorSq_1_2 GorSq_1_3"/>
    </vehicle>
    <vehicle id="car183" depart="1588.00">
        <route edges="RidGa_2_1 TorPl_2_3 HunSt_1_2"/>
    </vehicle>
    <vehicle id="car184" depart="1600.00">
        <route edges="GowSt_1_1 GowSt_1_2 GowSt_1_3 TorPl_2_2 TorPl_2_3 HunSt_1_2"/>
    </vehicle>
    <vehicle id="car185" depart="1601.00">
        <route edges="GowSt_1_1 GowSt_1_2 GowSt_1_3 TorPl_2_2 TorPl_2_3 TorPl_2_4"/>
    </vehicle>
    <vehicle id="car186" depart="1611.00">
        <route edges="UniSt_1_1 GowSt_1_3 TorPl_2_2 TorPl_2_3 TorPl_2_4"/>
    </vehicle>
    <vehicle id="car187" depart="1636.00">
        <route edges="UniSt_1_1 GowSt_1_3 TorPl_2_2 TorPl_2_3 TorPl_2_4"/>
    </vehicle>
    <vehicle id="car188" depart="1642.00">
        <route edges="GowSt_2_1 TorPl_2_2 TorPl_2_3 HunSt_1_2"/>
    </vehicle>
    <vehicle id="car189" depart="1648.00">
        <route edges="GowSt_2_1 GowSt_2_2 GowSt_2_3"/>
    </vehicle>
    <vehicle id="car190" depart="1652.00">
        <route edges="MalSt_2_1 BynPl_1_1 BynPl_1_2 BynPl_1_3 GorSq_1_2 GorSq_1_3"/>
    </vehicle>
    <vehicle id="car191" depart="1659.00">
        <route edges="UniSt_1_1 GowSt_1_3 TorPl_2_2 TorPl_2_3 HunSt_1_2"/>
    </vehicle>
    <vehicle id="car192" depart="1662.00">
        <route edges="GowSt_1_1 GowSt_1_2 GowSt_1_3 GowSt_1_4"/>
    </vehicle>
    <vehicle id="car193" depart="1665.00">
        <route edges="GowSt_2_1 TorPl_2_2 TorPl_2_3 TorPl_2_4"/>
    </vehicle>
    <vehicle id="car194" depart="1680.00">
        <route edges="HunSt_1_1 TorPl_2_4"/>
    </vehicle>
    <vehicle id="car195" depart="1694.00">
        <route edges="GowSt_1_1 GowSt_1_2 GowSt_1_3 TorPl_2_2 TorPl_2_3 HunSt_1_2"/>
    </vehicle>
    <vehicle id="car196" depart="1724.00">
        <route edges="GowSt_1_1 GowSt_1_2 GowSt_1_3 TorPl_2_2 TorPl_2_3 HunSt_1_2"/>
    </vehicle>
    <vehicle id="car197" depart="1727.00">
        <route edges="CheMe_1_1 TorPl_2_3 TorPl_2_4"/>
    </vehicle>
    <vehicle id="car198" depart="1734.00">
        <route edges="UniSt_1_1 GowSt_1_3 GowSt_1_4"/>
    </vehicle>
    <vehicle id="car199" depart="1734.00">
        <route edges="UniSt_1_1 GowSt_1_3 TorPl_1_4 BynPl_1_1 BynPl_1_2 BynPl_1_3 GorSq_1_2 GorSq_1_3"/>
    </vehicle>
    <vehicle id="car200" depart="1749.00">
        <route edges="GowSt_1_1 GowSt_1_2 GowSt_1_3 TorPl_2_2 TorPl_2_3 HunSt_1_2"/>
    </vehicle>
    <vehicle id="car201" depart="1779.00">
        <route edges="MalSt_2_1 BynPl_1_1 BynPl_1_2 BynPl_1_3 GorSq_2_3"/>
    </vehicle>
    <vehicle id="car202" depart="1781.00">
        <route edges="GorSq_1_1 GorSq_1_2 GorSq_1_3"/>
    </vehicle>
    <vehicle id="car203" depart="1793.00">
        <route edges="GowSt_2_1 GowSt_2_2 GowSt_2_3"/>
    </vehicle>
    <vehicle id="car204" depart="1796.00">
        <route edges="RidGa_2_1 TorPl_2_3 HunSt_1_2"/>
    </vehicle>
    <vehicle id="car205" depart="1797.00">
        <route edges="UniSt_1_1 GowSt_1_3 TorPl_2_2 TorPl_2_3 HunSt_1_2"/>
    </vehicle>
    <vehicle id="car206" depart="1799.00">
        <route edges="CheMe_1_1 TorPl_2_3 TorPl_2_4"/>
    </vehicle>
    <vehicle id="car207" depart="1805.00">
        <route edges="CheMe_1_1 TorPl_2_3 TorPl_2_4"/>
    </vehicle>
    <vehicle id="car208" depart="1817.00">
        <route edges="GowSt_1_1 GowSt_1_2 GowSt_1_3 TorPl_1_4 BynPl_1_1 BynPl_1_2 BynPl_1_3 GorSq_2_3"/>
    </vehicle>
    <vehicle id="car209" depart="1819.00">
        <route edges="GowSt_2_1 TorPl_1_4 BynPl_1_1 BynPl_1_2 BynPl_1_3 GorSq_1_2 GorSq_1_3"/>
    </vehicle>
    <vehicle id="car210" depart="1823.00">
        <route edges="CheMe_1_1 TorPl_2_3 TorPl_2_4"/>
    </vehicle>
    <vehicle id="car211" depart="1824.00">
        <route edges="GorSq_1_1 GorSq_1_2 GorSq_1_3"/>
    </vehicle>
    <vehicle id="car212" depart="1841.00">
        <route edges="UniSt_1_1 GowSt_1_3 TorPl_1_4 BynPl_1_1 BynPl_1_2 BynPl_1_3 GorSq_2_3"/>
    </vehicle>
    <vehicle id="car213" depart="1848.00">
        <route edges="GowSt_2_1 GowSt_2_2 GowSt_2_3"/>
    </vehicle>
    <vehicle id="car214" depart="1850.00">
        <route edges="UniSt_1_1 GowSt_1_3 TorPl_1_4 BynPl_1_1 BynPl_1_2 BynPl_1_3 GorSq_1_2 GorSq_1_3"/>
    </vehicle>
    <vehicle id="car215" depart="1851.00">
        <route edges="GowSt_1_1 GowSt_1_2 GowSt_1_3 TorPl_2_2 TorPl_2_3 HunSt_1_2"/>
    </vehicle>
    <vehicle id="car216" depart="1872.00">
        <route edges="UniSt_1_1 GowSt_1_3 TorPl_2_2 TorPl_2_3 TorPl_2_4"/>
    </vehicle>