<?xml version="1.0" encoding="UTF-8"?>

<!-- generated on 2026-02-02 18:57:50.455857 by Eclipse SUMO randomTrips.py UNKNOWN
<configuration>
    <net-file value="../networks/extended/main.net.xml"/>
    <output-trip-file value="../routes/extended/train/10000/pedestrian.trips.xml"/>
    <route-file value="../routes/extended/train/10000/pedestrian.rou.xml"/>
    <pedestrians value="True"/>
    <prefix value="pedestrian"/>
    <seed value="10000"/>
    <insertion-density value="200.0"/>
    <binomial value="100"/>
</configuration>
-->

<!-- generated on 2026-02-02T18:57:50.438390+00:00 by Eclipse SUMO duarouter 1.25.0
<duarouterConfiguration xmlns:xsi="http://www.w3.org/2001/XMLSchema-instance" xsi:noNamespaceSchemaLocation="http://sumo.dlr.de/xsd/duarouterConfiguration.xsd">

    <input>
        <net-file value="../networks/extended/main.net.xml"/>
        <route-files value="../routes/extended/train/10000/pedestrian.trips.xml"/>
    </input>

    <output>
        <output-file value="../routes/extended/train/10000/pedestrian.rou.xml"/>
        <alternatives-output value="NUL"/>
    </output>

    <time>
        <begin value="0"/>
        <end value="3600.0"/>
    </time>

    <report>
        <no-warnings value="true"/>
        <ignore-errors value="true"/>
        <no-step-log value="true"/>
    </report>

</duarouterConfiguration>
-->

<routes xmlns:xsi="http://www.w3.org/2001/XMLSchema-instance" xsi:noNamespaceSchemaLocation="http://sumo.dlr.de/xsd/routes_file.xsd">
    <person id="pedestrian0" depart="0.00">
        <walk edges="TorPl_1_2 HunSt_1_1"/>
    </person>
    <person id="pedestrian1" depart="3.00">
        <walk edges="TorPl_2_4 HunSt_1_1"/>
    </person>
    <person id="pedestrian2" depart="5.00">
        <walk edges="GowSt_2_2 TorPl_1_3"/>
    </person>
    <person id="pedestrian3" depart="5.00">
        <walk edges="MalPl_2_1 MalPl_1_1"/>
    </person>
    <person id="pedestrian4" depart="6.00">
        <walk edges="GowSt_1_4"/>
    </person>
    <person id="pedestrian5" depart="10.00">
        <walk edges="GowSt_1_1 GowSt_1_2 GowSt_1_3 TorPl_2_2 TorPl_2_3 HunSt_1_2"/>
    </person>
    <person id="pedestrian6" depart="11.00">
        <walk edges="BynPl_2_3 TorPl_1_4 TorPl_1_3 TorPl_1_2 HunSt_1_1"/>
    </person>
    <person id="pedestrian7" depart="13.00">
        <walk edges="TorPl_2_2 TorPl_2_1 MalSt_1_1"/>
    </person>
    <person id="pedestrian8" depart="13.00">
        <walk edges="GowSt_1_4 TorPl_1_3 CheMe_1_1"/>
    </person>
    <person id="pedestrian9" depart="13.00">
        <walk edges="GowSt_1_2 GowSt_1_3 TorPl_1_4 BynPl_1_1 BynPl_2_2"/>
    </person>
    <person id="pedestrian10" depart="14.00">
        <walk edges="TorPl_2_3 TorPl_2_2 GowSt_1_3 GowSt_1_2"/>
    </person>
    <person id="pedestrian11" depart="16.00">
        <walk edges="UniSt_1_1 GowSt_2_2 TorPl_1_3 TorPl_1_2"/>
    </person>
    <person id="pedestrian12" depart="19.00">
        <walk edges="UniSt_1_1 GowSt_2_2 TorPl_1_3 TorPl_1_2 HunSt_1_1"/>
    </person>
    <person id="pedestrian13" depart="25.00">
        <walk edges="RidGa_2_1 TorPl_2_2 TorPl_2_1"/>
    </person>
    <person id="pedestrian14" depart="27.00">
        <walk edges="UniSt_2_1 GowSt_2_2 TorPl_1_4 BynPl_1_1 BynPl_1_2"/>
    </person>
    <person id="pedestrian15" depart="31.00">
        <walk edges="HunSt_1_2 TorPl_2_3 TorPl_2_2 GowSt_2_2"/>
    </person>
    <person id="pedestrian16" depart="32.00">
        <walk edges="CheMe_2_1 TorPl_1_2 HunSt_2_1"/>
    </person>
    <person id="pedestrian17" depart="41.00">
        <walk edges="TorPl_2_4 TorPl_1_2 TorPl_1_3 GowSt_2_2 UniSt_1_1"/>
    </person>
    <person id="pedestrian18" depart="45.00">
        <walk edges="BynPl_1_2 BynPl_1_1 TorPl_1_4 TorPl_1_3 TorPl_1_2"/>
    </person>
    <person id="pedestrian19" depart="46.00">
        <walk edges="BynPl_2_2 BynPl_1_1 TorPl_1_4 GowSt_1_3 GowSt_1_2 MaiQu_1_1"/>
    </person>
    <person id="pedestrian20" depart="48.00">
        <walk edges="CheMe_1_1 TorPl_1_3 TorPl_2_1"/>
    </person>
    <person id="pedestrian21" depart="56.00">
        <walk edges="BynPl_2_1 BynPl_1_3 GorSq_1_2"/>
    </person>
    <person id="pedestrian22" depart="59.00">
        <walk edges="GowSt_1_4 TorPl_2_1 BynPl_2_3 BynPl_2_2 BynPl_2_1 GorSq_2_2"/>
    </person>
    <person id="pedestrian23" depart="63.00">
        <walk edges="GorSq_2_3 BynPl_1_3 BynPl_1_2 BynPl_1_1 TorPl_1_4 GowSt_2_1"/>
    </person>
    <person id="pedestrian24" depart="66.00">
        <walk edges="MaiQu_1_1 GowSt_1_2 GowSt_1_3 TorPl_2_2 TorPl_2_3"/>
    </person>
    <person id="pedestrian25" depart="69.00">
        <walk edges="BynPl_2_1 BynPl_2_2 BynPl_1_1 TorPl_1_4 TorPl_1_3 CheMe_2_1"/>
    </person>
    <person id="pedestrian26" depart="70.00">
        <walk edges="BynPl_2_3 TorPl_1_4 GowSt_2_2 UniSt_2_1"/>
    </person>
    <person id="pedestrian27" depart="79.00">
        <walk edges="BynPl_1_1 TorPl_1_4 GowSt_1_3 GowSt_1_2 MaiQu_2_1"/>
    </person>
    <person id="pedestrian28" depart="85.00">
        <walk edges="MalPl_2_1 TorPl_1_4 GowSt_2_2 UniSt_2_1"/>
    </person>
    <person id="pedestrian29" depart="87.00">
        <walk edges="TorPl_2_4 HunSt_2_1"/>
    </person>
    <person id="pedestrian30" depart="87.00">
        <walk edges="RidGa_1_1 TorPl_2_2 GowSt_1_3 GowSt_1_2 MaiQu_1_1"/>
    </person>
    <person id="pedestrian31" depart="88.00">
        <walk edges="GorSq_1_3 GorSq_1_2 BynPl_1_3 BynPl_1_2 BynPl_1_1 TorPl_1_4 GowSt_1_3"/>
    </person>
    <person id="pedestrian32" depart="93.00">
        <walk edges="GorSq_2_2 BynPl_2_1 BynPl_2_2"/>
    </person>
    <person id="pedestrian33" depart="98.00">
        <walk edges="RidGa_1_1 TorPl_2_2 TorPl_1_4 BynPl_1_1 BynPl_1_2 BynPl_1_3 GorSq_1_2 GorSq_1_3"/>
    </person>
    <person id="pedestrian34" depart="107.00">
        <walk edges="MaiQu_2_1 GowSt_1_2 GowSt_1_3 TorPl_1_4 BynPl_1_1 BynPl_1_2 BynPl_1_3 GorSq_1_2 GorSq_1_3"/>
    </person>
    <person id="pedestrian35" depart="113.00">
        <walk edges="BynPl_2_1 BynPl_2_2 BynPl_2_3 TorPl_2_1"/>
    </person>
    <person id="pedestrian36" depart="117.00">
        <walk edges="TorPl_1_3 TorPl_1_2 TorPl_2_4"/>
    </person>
    <person id="pedestrian37" depart="118.00">
        <walk edges="TorPl_2_1 GowSt_1_3"/>
    </person>
    <person id="pedestrian38" depart="122.00">
        <walk edges="TorPl_1_4 TorPl_2_2"/>
    </person>
    <person id="pedestrian39" depart="131.00">
        <walk edges="GorSq_1_2"/>
    </person>
    <person id="pedestrian40" depart="132.00">
        <walk edges="TorPl_2_3 TorPl_2_2 GowSt_1_4"/>
    </person>
    <person id="pedestrian41" depart="138.00">
        <walk edges="TorPl_1_3 TorPl_1_4"/>
    </person>
    <person id="pedestrian42" depart="138.00">
        <walk edges="TorPl_2_3 TorPl_2_2 GowSt_1_3 GowSt_1_2 GowSt_1_1"/>
    </person>
    <person id="pedestrian43" depart="144.00">
        <walk edges="HunSt_1_1 HunSt_2_1"/>
    </person>
    <person id="pedestrian44" depart="148.00">
        <walk edges="GowSt_2_3 GowSt_1_3 TorPl_1_4 BynPl_1_1 BynPl_2_2 BynPl_2_1"/>
    </person>
    <person id="pedestrian45" depart="155.00">
        <walk edges="GorSq_1_1 BynPl_1_3 BynPl_1_2 BynPl_1_1 TorPl_1_4 TorPl_1_3 CheMe_1_1"/>
    </person>
    <person id="pedestrian46" depart="156.00">
        <walk edges="BynPl_2_2 BynPl_2_3 TorPl_2_1 TorPl_2_2 TorPl_2_3 TorPl_2_4"/>
    </person>
    <person id="pedestrian47" depart="157.00">
        <walk edges="BynPl_1_2 BynPl_1_1 TorPl_1_4"/>
    </person>
    <person id="pedestrian48" depart="157.00">
        <walk edges="TorPl_1_2 TorPl_1_3 TorPl_2_1 MalSt_2_1"/>
    </person>
    <person id="pedestrian49" depart="160.00">
        <walk edges="BynPl_1_2 BynPl_1_1 TorPl_1_4 TorPl_2_2 RidGa_1_1"/>
    </person>
    <person id="pedestrian50" depart="162.00">
        <walk edges="GowSt_2_2 TorPl_1_3 TorPl_1_2 HunSt_2_2"/>
    </person>
    <person id="pedestrian51" depart="164.00">
        <walk edges="GowSt_1_4 TorPl_2_2 TorPl_2_3 TorPl_2_4"/>
    </person>
    <person id="pedestrian52" depart="166.00">
        <walk edges="GorSq_2_3 BynPl_1_3 BynPl_2_1 GorSq_2_2"/>
    </person>
    <person id="pedestrian53" depart="172.00">
        <walk edges="GorSq_1_2 BynPl_1_3 BynPl_1_2 BynPl_1_1 MalPl_1_1"/>
    </person>
    <person id="pedestrian54" depart="173.00">
        <walk edges="UniSt_2_1 GowSt_2_2 TorPl_2_2 RidGa_2_1"/>
    </person>
    <person id="pedestrian55" depart="173.00">
        <walk edges="GowSt_1_3 TorPl_1_4 BynPl_1_1 BynPl_1_2 BynPl_1_3 GorSq_1_2 GorSq_1_3"/>
    </person>
    <person id="pedestrian56" depart="176.00">
        <walk edges="HunSt_1_2 TorPl_2_3 TorPl_2_2 GowSt_1_3 GowSt_1_2"/>
    </person>
    <person id="pedestrian57" depart="177.00">
        <walk edges="MalSt_1_1 TorPl_1_4 TorPl_1_3 TorPl_1_2 HunSt_2_2"/>
    </person>
    <person id="pedestrian58" depart="179.00">
        <walk edges="GowSt_2_3 GowSt_1_3 TorPl_1_4 MalPl_2_1"/>
    </person>
    <person id="pedestrian59" depart="182.00">
        <walk edges="BynPl_2_1 BynPl_2_2 BynPl_1_1 TorPl_1_4 GowSt_1_3"/>
    </person>
    <person id="pedestrian60" depart="183.00">
        <walk edges="BynPl_1_1 TorPl_1_4 GowSt_1_4"/>
    </person>
    <person id="pedestrian61" depart="185.00">
        <walk edges="MalPl_2_1 BynPl_1_1 BynPl_2_2 BynPl_2_1"/>
    </person>
    <person id="pedestrian62" depart="186.00">
        <walk edges="TorPl_1_2 HunSt_1_1"/>
    </person>
    <person id="pedestrian63" depart="189.00">
        <walk edges="BynPl_2_3 TorPl_1_4 TorPl_1_3 CheMe_1_1"/>
    </person>
    <person id="pedestrian64" depart="190.00">
        <walk edges="CheMe_1_1 TorPl_1_3 TorPl_1_4 BynPl_2_3"/>
    </person>
    <person id="pedestrian65" depart="193.00">
        <walk edges="GowSt_1_1 GowSt_1_2 GowSt_1_3 TorPl_1_4 BynPl_1_1 BynPl_2_2"/>
    </person>
    <person id="pedestrian66" depart="193.00">
        <walk edges="HunSt_2_2 TorPl_1_2 TorPl_1_3 GowSt_1_3 GowSt_1_2 MaiQu_1_1"/>
    </person>
    <person id="pedestrian67" depart="200.00">
        <walk edges="BynPl_1_2 BynPl_1_1 TorPl_1_4 TorPl_1_3 TorPl_1_2 HunSt_1_1"/>
    </person>
    <person id="pedestrian68" depart="202.00">
        <walk edges="TorPl_1_4 GowSt_1_3 GowSt_1_2 GowSt_1_1"/>
    </person>
    <person id="pedestrian69" depart="203.00">
        <walk edges="MalSt_2_1 TorPl_2_1 TorPl_2_2 TorPl_2_3 TorPl_2_4"/>
    </person>
    <person id="pedestrian70" depart="207.00">
        <walk edges="MalSt_1_1 TorPl_2_1 TorPl_2_2 TorPl_2_3 HunSt_1_2"/>
    </person>
    <person id="pedestrian71" depart="208.00">
        <walk edges="MalSt_1_1 BynPl_2_3"/>
    </person>
    <person id="pedestrian72" depart="211.00">
        <walk edges="UniSt_1_1 GowSt_2_2 TorPl_2_2"/>
    </person>
    <person id="pedestrian73" depart="211.00">
        <walk edges="HunSt_1_1 TorPl_2_3 RidGa_2_1"/>
    </person>
    <person id="pedestrian74" depart="215.00">
        <walk edges="UniSt_2_1 GowSt_2_2 TorPl_1_3 TorPl_1_2 HunSt_2_2"/>
    </person>
    <person id="pedestrian75" depart="217.00">
        <walk edges="MalPl_1_1 TorPl_1_4 TorPl_1_3 TorPl_1_2 HunSt_2_1"/>
    </person>
    <person id="pedestrian76" depart="224.00">
        <walk edges="CheMe_2_1 TorPl_1_3 GowSt_1_3 GowSt_1_2 GowSt_1_1"/>
    </person>
    <person id="pedestrian77" depart="224.00">
        <walk edges="MaiQu_1_1 GowSt_1_2 GowSt_1_3 TorPl_1_3 CheMe_2_1"/>
    </person>
    <person id="pedestrian78" depart="225.00">
        <walk edges="UniSt_1_1 GowSt_2_2 TorPl_2_2 TorPl_2_3 HunSt_1_2"/>
    </person>
    <person id="pedestrian79" depart="226.00">
        <walk edges="GorSq_2_2 BynPl_2_1 BynPl_2_2 BynPl_1_1 TorPl_1_4 GowSt_1_3 GowSt_2_3"/>
    </person>
    <person id="pedestrian80" depart="226.00">
        <walk edges="GorSq_2_2 GorSq_1_3"/>
    </person>
    <person id="pedestrian81" depart="227.00">
        <walk edges="BynPl_1_1 BynPl_2_2 BynPl_2_1 GorSq_2_2 GorSq_2_1"/>
    </person>
    <person id="pedestrian82" depart="227.00">
        <walk edges="MalSt_1_1 TorPl_1_4 GowSt_1_3 GowSt_1_2 MaiQu_1_1"/>
    </person>
    <person id="pedestrian83" depart="227.00">
        <walk edges="GowSt_2_1 TorPl_1_4 BynPl_1_1 BynPl_1_2 BynPl_1_3 GorSq_2_3"/>
    </person>
    <person id="pedestrian84" depart="231.00">
        <walk edges="HunSt_1_1 TorPl_1_2 TorPl_1_3 TorPl_1_4 BynPl_1_1 BynPl_1_2 BynPl_1_3"/>
    </person>
    <person id="pedestrian85" depart="249.00">
        <walk edges="TorPl_2_1 TorPl_1_4"/>
    </person>
    <person id="pedestrian86" depart="251.00">
        <walk edges="HunSt_1_2 TorPl_1_2 CheMe_2_1"/>
    </person>
    <person id="pedestrian87" depart="253.00">
        <walk edges="BynPl_2_1 BynPl_2_2 BynPl_2_3 TorPl_2_1 TorPl_2_2 RidGa_1_1"/>
    </person>
    <person id="pedestrian88" depart="255.00">
        <walk edges="HunSt_2_1 TorPl_1_2 TorPl_1_3 TorPl_1_4 BynPl_1_1 BynPl_1_2 BynPl_1_3 GorSq_1_1"/>
    </person>
    <person id="pedestrian89" depart="257.00">
        <walk edges="TorPl_1_2 TorPl_1_3 TorPl_1_4 BynPl_2_3"/>
    </person>
    <person id="pedestrian90" depart="259.00">
        <walk edges="RidGa_1_1 TorPl_2_3 TorPl_1_1"/>
    </person>
    <person id="pedestrian91" depart="265.00">
        <walk edges="TorPl_2_1 BynPl_2_3 BynPl_2_2 BynPl_1_3 GorSq_1_2 GorSq_1_3"/>
    </person>
    <person id="pedestrian92" depart="271.00">
        <walk edges="TorPl_2_1 GowSt_1_3 GowSt_1_2"/>
    </person>
    <person id="pedestrian93" depart="274.00">
        <walk edges="BynPl_2_2 BynPl_1_1 TorPl_1_4 GowSt_1_3 GowSt_1_2 MaiQu_2_1"/>
    </person>
    <person id="pedestrian94" depart="276.00">
        <walk edges="RidGa_1_1 TorPl_2_3 TorPl_1_1"/>
    </person>
    <person id="pedestrian95" depart="283.00">
        <walk edges="TorPl_2_2 TorPl_1_4 BynPl_1_1 BynPl_1_2 BynPl_1_3"/>
    </person>
    <person id="pedestrian96" depart="285.00">
        <walk edges="TorPl_1_1 HunSt_1_1"/>
    </person>
    <person id="pedestrian97" depart="288.00">
        <walk edges="TorPl_1_4 TorPl_1_3 CheMe_2_1"/>
    </person>
    <person id="pedestrian98" depart="289.00">
        <walk edges="BynPl_2_3 BynPl_1_1"/>
    </person>
    <person id="pedestrian99" depart="291.00">
        <walk edges="GowSt_2_3 GowSt_2_2 TorPl_2_2 TorPl_2_3 HunSt_1_2"/>
    </person>
    <person id="pedestrian100" depart="291.00">
        <walk edges="GorSq_2_2 BynPl_2_1 BynPl_2_2 BynPl_2_3 TorPl_2_1 TorPl_2_2 TorPl_2_3"/>
    </person>
    <person id="pedestrian101" depart="291.00">
        <walk edges="GowSt_2_2 TorPl_1_4 BynPl_1_1 BynPl_1_2 BynPl_1_3 GorSq_1_1"/>
    </person>
    <person id="pedestrian102" depart="294.00">
        <walk edges="MalPl_2_1 BynPl_1_1"/>
    </person>
    <person id="pedestrian103" depart="294.00">
        <walk edges="BynPl_1_1 TorPl_1_4 TorPl_1_3 TorPl_1_2 TorPl_1_1"/>
    </person>
    <person id="pedestrian104" depart="302.00">
        <walk edges="HunSt_1_1 TorPl_1_2 TorPl_1_3 TorPl_1_4 MalPl_2_1"/>
    </person>
    <person id="pedestrian105" depart="309.00">
        <walk edges="BynPl_2_3 TorPl_1_4 TorPl_1_3 TorPl_1_2 TorPl_1_1"/>
    </person>
    <person id="pedestrian106" depart="314.00">
        <walk edges="RidGa_2_1 TorPl_2_2 TorPl_1_4 BynPl_1_1 BynPl_1_2 BynPl_1_3 GorSq_2_3"/>
    </person>
    <person id="pedestrian107" depart="319.00">
        <walk edges="GowSt_2_3 GowSt_2_2 TorPl_2_2 TorPl_2_3"/>
    </person>
    <person id="pedestrian108" depart="331.00">
        <walk edges="BynPl_2_1 BynPl_2_2 BynPl_1_1 TorPl_1_4 GowSt_1_3 GowSt_1_2 GowSt_1_1"/>
    </person>
    <person id="pedestrian109" depart="336.00">
        <walk edges="BynPl_2_1 BynPl_2_2 BynPl_1_1 TorPl_1_4"/>
    </person>
    <person id="pedestrian110" depart="354.00">
        <walk edges="RidGa_2_1 TorPl_2_2 TorPl_1_4 BynPl_1_1 BynPl_1_2 BynPl_1_3 GorSq_1_1"/>
    </person>
    <person id="pedestrian111" depart="359.00">
        <walk edges="TorPl_2_2 GowSt_1_3 GowSt_1_2"/>
    </person>
    <person id="pedestrian112" depart="367.00">
        <walk edges="HunSt_2_2 TorPl_1_2 TorPl_1_3 TorPl_1_4 BynPl_1_1 BynPl_1_2 BynPl_1_3 GorSq_1_1"/>
    </person>
    <person id="pedestrian113" depart="369.00">
        <walk edges="GorSq_2_1 GorSq_2_2 BynPl_2_1 BynPl_2_2"/>
    </person>
    <person id="pedestrian114" depart="372.00">
        <walk edges="GorSq_2_3 BynPl_1_3 BynPl_1_2 BynPl_1_1 TorPl_1_4 GowSt_1_3 GowSt_1_2"/>
    </person>
    <person id="pedestrian115" depart="378.00">
        <walk edges="TorPl_2_3 TorPl_2_2 TorPl_2_1 MalSt_2_1"/>
    </person>
    <person id="pedestrian116" depart="382.00">
        <walk edges="RidGa_2_1 TorPl_2_2 TorPl_1_4 BynPl_1_1 BynPl_1_2"/>
    </person>
    <person id="pedestrian117" depart="383.00">
        <walk edges="HunSt_1_2 HunSt_2_2"/>
    </person>
    <person id="pedestrian118" depart="384.00">
        <walk edges="MalSt_1_1 BynPl_2_3 BynPl_2_2 BynPl_2_1 GorSq_2_2"/>
    </person>
    <person id="pedestrian119" depart="388.00">
        <walk edges="GorSq_2_2 BynPl_2_1 BynPl_2_2 BynPl_2_3 TorPl_2_1 TorPl_2_2 TorPl_2_3"/>
    </person>
    <person id="pedestrian120" depart="397.00">
        <walk edges="BynPl_1_3 BynPl_1_2 BynPl_1_1 TorPl_1_4 GowSt_1_3"/>
    </person>
    <person id="pedestrian121" depart="406.00">
        <walk edges="MaiQu_2_1 GowSt_1_2 GowSt_1_3 GowSt_1_4"/>
    </person>
    <person id="pedestrian122" depart="406.00">
        <walk edges="HunSt_2_1 TorPl_2_4"/>
    </person>
    <person id="pedestrian123" depart="408.00">
        <walk edges="GowSt_1_3 TorPl_2_2 TorPl_2_3 HunSt_1_2"/>
    </person>
    <person id="pedestrian124" depart="410.00">
        <walk edges="MaiQu_1_1 GowSt_1_2 UniSt_2_1"/>
    </person>
    <person id="pedestrian125" depart="415.00">
        <walk edges="CheMe_2_1 TorPl_1_3 GowSt_2_2"/>
    </person>
    <person id="pedestrian126" depart="415.00">
        <walk edges="CheMe_2_1 TorPl_1_3 GowSt_1_3"/>
    </person>
    <person id="pedestrian127" depart="422.00">
        <walk edges="TorPl_2_4 TorPl_1_2 TorPl_1_3 TorPl_1_4 BynPl_1_1 BynPl_1_2"/>
    </person>
    <person id="pedestrian128" depart="424.00">
        <walk edges="TorPl_2_3 HunSt_1_1"/>
    </person>
    <person id="pedestrian129" depart="436.00">
        <walk edges="TorPl_1_2 HunSt_2_1"/>
    </person>
    <person id="pedestrian130" depart="439.00">
        <walk edges="BynPl_2_1 BynPl_2_2 BynPl_2_3 TorPl_2_1"/>
    </person>
    <person id="pedestrian131" depart="443.00">
        <walk edges="GorSq_2_1 GorSq_2_2 BynPl_2_1 BynPl_2_2 BynPl_2_3 MalSt_1_1"/>
    </person>
    <person id="pedestrian132" depart="448.00">
        <walk edges="TorPl_2_2 TorPl_2_1 BynPl_2_3 BynPl_2_2 BynPl_2_1 GorSq_2_2"/>
    </person>
    <person id="pedestrian133" depart="453.00">
        <walk edges="HunSt_2_2 TorPl_1_2"/>
    </person>
    <person id="pedestrian134" depart="455.00">
        <walk edges="MalSt_1_1 TorPl_2_1 TorPl_2_2 RidGa_1_1"/>
    </person>
    <person id="pedestrian135" depart="459.00">
        <walk edges="TorPl_2_3 TorPl_2_2 GowSt_1_3 GowSt_1_2 GowSt_1_1"/>
    </person>
    <person id="pedestrian136" depart="460.00">
        <walk edges="MalSt_1_1 BynPl_2_3 BynPl_2_2"/>
    </person>
    <person id="pedestrian137" depart="470.00">
        <walk edges="BynPl_1_1 TorPl_1_4 TorPl_2_2 TorPl_2_3"/>
    </person>
    <person id="pedestrian138" depart="471.00">
        <walk edges="GowSt_1_2 GowSt_1_3 TorPl_2_2 RidGa_2_1"/>
    </person>
    <person id="pedestrian139" depart="473.00">
        <walk edges="GorSq_1_2 BynPl_1_3"/>
    </person>
    <person id="pedestrian140" depart="473.00">
        <walk edges="TorPl_1_2 HunSt_1_2"/>
    </person>
    <person id="pedestrian141" depart="473.00">
        <walk edges="BynPl_2_2 BynPl_1_3 GorSq_1_2 GorSq_1_3"/>
    </person>
    <person id="pedestrian142" depart="475.00">
        <walk edges="MalPl_2_1 BynPl_1_1 BynPl_2_2 BynPl_2_1 GorSq_2_2 GorSq_2_1"/>
    </person>
    <person id="pedestrian143" depart="476.00">
        <walk edges="CheMe_2_1 TorPl_1_2 HunSt_1_1"/>
    </person>
    <person id="pedestrian144" depart="477.00">
        <walk edges="GorSq_1_3 GorSq_1_2 BynPl_1_3 BynPl_1_2 BynPl_1_1 TorPl_1_4 GowSt_1_3 UniSt_1_1"/>
    </person>
    <person id="pedestrian145" depart="487.00">
        <walk edges="MaiQu_1_1"/>
    </person>
    <person id="pedestrian146" depart="488.00">
        <walk edges="GorSq_2_3 BynPl_1_3 BynPl_1_2 BynPl_1_1 TorPl_1_4 TorPl_1_3 TorPl_1_2 HunSt_2_2"/>
    </person>
    <person id="pedestrian147" depart="490.00">
        <walk edges="GorSq_2_1 GorSq_2_2 BynPl_2_1 BynPl_2_2 BynPl_1_1 TorPl_1_4 GowSt_2_2"/>
    </person>
    <person id="pedestrian148" depart="490.00">
        <walk edges="CheMe_2_1 TorPl_1_2 TorPl_2_3 RidGa_2_1"/>
    </person>
    <person id="pedestrian149" depart="491.00">
        <walk edges="GowSt_1_3 TorPl_1_4 BynPl_1_1 BynPl_1_2 BynPl_1_3 GorSq_1_2"/>
    </person>
    <person id="pedestrian150" depart="493.00">
        <walk edges="GowSt_1_2 GowSt_1_3 GowSt_2_1"/>
    </person>
    <person id="pedestrian151" depart="496.00">
        <walk edges="GorSq_1_2 GorSq_1_3"/>
    </person>
    <person id="pedestrian152" depart="503.00">
        <walk edges="GorSq_1_1 BynPl_1_3 BynPl_1_2"/>
    </person>
    <person id="pedestrian153" depart="509.00">
        <walk edges="TorPl_1_2 TorPl_1_3 TorPl_1_4 BynPl_1_1 BynPl_1_2 BynPl_1_3 GorSq_1_1"/>
    </person>
    <person id="pedestrian154" depart="510.00">
        <walk edges="CheMe_2_1 TorPl_1_3 TorPl_1_4 BynPl_1_1 BynPl_2_2"/>
    </person>
    <person id="pedestrian155" depart="514.00">
        <walk edges="TorPl_2_1 TorPl_2_2 TorPl_2_3 HunSt_2_1"/>
    </person>
    <person id="pedestrian156" depart="516.00">
        <walk edges="RidGa_1_1 TorPl_2_2 TorPl_2_1 BynPl_2_3"/>
    </person>
    <person id="pedestrian157" depart="517.00">
        <walk edges="UniSt_2_1 GowSt_2_2 TorPl_1_4 BynPl_1_1 BynPl_1_2 BynPl_1_3 GorSq_1_2 GorSq_1_3"/>
    </person>
    <person id="pedestrian158" depart="518.00">
        <walk edges="MalSt_2_1 TorPl_2_1 TorPl_2_2 TorPl_2_3 HunSt_1_2"/>
    </person>
    <person id="pedestrian159" depart="522.00">
        <walk edges="TorPl_1_3 TorPl_1_4 BynPl_1_1 BynPl_1_2 BynPl_1_3 GorSq_1_2 GorSq_1_3"/>
    </person>
    <person id="pedestrian160" depart="527.00">
        <walk edges="GowSt_1_1 GowSt_1_2 GowSt_1_3"/>
    </person>
    <person id="pedestrian161" depart="527.00">
        <walk edges="BynPl_1_2"/>
    </person>
    <person id="pedestrian162" depart="534.00">
        <walk edges="TorPl_1_2 TorPl_1_3 GowSt_2_1"/>
    </person>
    <person id="pedestrian163" depart="535.00">
        <walk edges="MalPl_1_1 BynPl_1_1 BynPl_2_2"/>
    </person>
    <person id="pedestrian164" depart="535.00">
        <walk edges="GowSt_1_1 GowSt_1_2 GowSt_1_3 TorPl_2_2"/>
    </person>
    <person id="pedestrian165" depart="536.00">
        <walk edges="GowSt_1_1 GowSt_1_2 GowSt_1_3 GowSt_2_1"/>
    </person>
    <person id="pedestrian166" depart="538.00">
        <walk edges="MalPl_2_1 BynPl_1_1 BynPl_1_2 BynPl_1_3 GorSq_1_1"/>
    </person>
    <person id="pedestrian167" depart="539.00">
        <walk edges="HunSt_1_2 TorPl_2_3 TorPl_2_2 GowSt_1_3 GowSt_1_2 MaiQu_1_1"/>
    </person>
    <person id="pedestrian168" depart="543.00">
        <walk edges="HunSt_2_2 TorPl_2_3 RidGa_1_1"/>
    </person>
    <person id="pedestrian169" depart="554.00">
        <walk edges="TorPl_1_3 TorPl_1_4 BynPl_1_1 BynPl_1_2 BynPl_1_3 GorSq_2_3"/>
    </person>
    <person id="pedestrian170" depart="556.00">
        <walk edges="GorSq_1_3 GorSq_1_2 BynPl_1_3 BynPl_1_2 BynPl_1_1 MalPl_2_1"/>
    </person>
    <person id="pedestrian171" depart="557.00">
        <walk edges="GowSt_1_3 TorPl_1_3"/>
    </person>
    <person id="pedestrian172" depart="560.00">
        <walk edges="GowSt_2_2 UniSt_1_1"/>
    </person>
    <person id="pedestrian173" depart="562.00">
        <walk edges="BynPl_1_2 BynPl_1_1 TorPl_1_4 TorPl_1_3"/>
    </person>
    <person id="pedestrian174" depart="562.00">
        <walk edges="MalSt_2_1 BynPl_2_3 BynPl_2_2 BynPl_1_3"/>
    </person>
    <person id="pedestrian175" depart="563.00">
        <walk edges="BynPl_2_2 BynPl_1_3 GorSq_2_3"/>
    </person>
    <person id="pedestrian176" depart="564.00">
        <walk edges="GowSt_1_2 GowSt_1_3 TorPl_2_1 MalSt_2_1"/>
    </person>
    <person id="pedestrian177" depart="568.00">
        <walk edges="TorPl_2_2 RidGa_2_1"/>
    </person>
    <person id="pedestrian178" depart="568.00">
        <walk edges="TorPl_1_2 TorPl_1_3 GowSt_1_3 GowSt_1_2 MaiQu_2_1"/>
    </person>
    <person id="pedestrian179" depart="568.00">
        <walk edges="BynPl_1_2 BynPl_1_1 TorPl_1_4 TorPl_2_2 TorPl_2_3"/>
    </person>
    <person id="pedestrian180" depart="569.00">
        <walk edges="GowSt_1_2 GowSt_1_3 TorPl_1_4 BynPl_1_1 BynPl_1_2 BynPl_1_3 GorSq_1_2 GorSq_1_3"/>
    </person>
    <person id="pedestrian181" depart="571.00">
        <walk edges="BynPl_2_2 BynPl_2_1 GorSq_2_2 GorSq_2_1"/>
    </person>
    <person id="pedestrian182" depart="575.00">
        <walk edges="GorSq_1_2 GorSq_2_2"/>
    </person>
    <person id="pedestrian183" depart="576.00">
        <walk edges="GowSt_2_2 TorPl_1_4 BynPl_1_1 BynPl_1_2 BynPl_1_3 GorSq_1_2 GorSq_1_3"/>
    </person>
    <person id="pedestrian184" depart="587.00">
        <walk edges="TorPl_2_4 TorPl_1_2 TorPl_1_3 TorPl_1_4"/>
    </person>
    <person id="pedestrian185" depart="589.00">
        <walk edges="BynPl_1_1 TorPl_1_4 GowSt_1_3 UniSt_1_1"/>
    </person>
    <person id="pedestrian186" depart="590.00">
        <walk edges="GorSq_1_2 BynPl_1_3 BynPl_1_2 BynPl_1_1 TorPl_1_4 GowSt_1_3 GowSt_2_3"/>
    </person>
    <person id="pedestrian187" depart="591.00">
        <walk edges="GowSt_1_1 GowSt_1_2 GowSt_1_3 TorPl_2_1 MalSt_2_1"/>
    </person>
    <person id="pedestrian188" depart="596.00">
        <walk edges="HunSt_1_2 TorPl_2_3 TorPl_2_2 GowSt_1_3"/>
    </person>
    <person id="pedestrian189" depart="596.00">
        <walk edges="GorSq_1_2 BynPl_1_3 BynPl_1_2 BynPl_1_1 TorPl_1_4 TorPl_1_3 CheMe_1_1"/>
    </person>
    <person id="pedestrian190" depart="597.00">
        <walk edges="BynPl_1_2 BynPl_1_3 GorSq_1_1"/>
    </person>
    <person id="pedestrian191" depart="602.00">
        <walk edges="CheMe_2_1 TorPl_1_2 TorPl_2_3 RidGa_1_1"/>
    </person>
    <person id="pedestrian192" depart="607.00">
        <walk edges="HunSt_1_2 TorPl_2_3 TorPl_2_2 TorPl_1_4 MalPl_2_1"/>
    </person>
    <person id="pedestrian193" depart="609.00">
        <walk edges="UniSt_2_1 GowSt_2_2 TorPl_2_2 RidGa_1_1"/>
    </person>
    <person id="pedestrian194" depart="615.00">
        <walk edges="GowSt_1_1 GowSt_1_2 GowSt_1_3 TorPl_1_3 TorPl_1_2 HunSt_1_1"/>
    </person>
    <person id="pedestrian195" depart="615.00">
        <walk edges="GorSq_1_3 GorSq_1_2 BynPl_1_3 BynPl_1_2 BynPl_1_1 TorPl_1_4 GowSt_2_2 UniSt_2_1"/>
    </person>
    <person id="pedestrian196" depart="618.00">
        <walk edges="GorSq_2_2 BynPl_2_1 BynPl_2_2 BynPl_1_1 TorPl_1_4 GowSt_1_3 GowSt_1_2"/>
    </person>
    <person id="pedestrian197" depart="619.00">
        <walk edges="TorPl_1_1 HunSt_2_2"/>
    </person>
    <person id="pedestrian198" depart="621.00">
        <walk edges="MalPl_2_1 BynPl_1_1 BynPl_1_2 BynPl_1_3"/>
    </person>
    <person id="pedestrian199" depart="631.00">
        <walk edges="MaiQu_1_1 MaiQu_2_1"/>
    </person>
    <person id="pedestrian200" depart="632.00">
        <walk edges="GorSq_2_1 GorSq_1_2"/>
    </person>
    <person id="pedestrian201" depart="632.00">
        <walk edges="MalSt_2_1 BynPl_2_3 BynPl_2_2 BynPl_2_1 GorSq_2_2"/>
    </person>
    <person id="pedestrian202" depart="636.00">
        <walk edges="TorPl_1_4 MalPl_2_1"/>
    </person>
    <person id="pedestrian203" depart="648.00">
        <walk edges="TorPl_2_1 TorPl_1_4"/>
    </person>
    <person id="pedestrian204" depart="649.00">
        <walk edges="GowSt_1_3 GowSt_2_3"/>
    </person>
    <person id="pedestrian205" depart="652.00">
        <walk edges="GowSt_1_1 GowSt_1_2 GowSt_1_3 TorPl_2_1"/>
    </person>
    <person id="pedestrian206" depart="654.00">
        <walk edges="GorSq_2_1 GorSq_1_3"/>
    </person>
    <person id="pedestrian207" depart="659.00">
        <walk edges="GorSq_2_1 GorSq_2_2 BynPl_2_1 BynPl_2_2 BynPl_2_3"/>
    </person>
    <person id="pedestrian208" depart="662.00">
        <walk edges="UniSt_2_1 GowSt_2_2 TorPl_1_4 BynPl_1_1 BynPl_2_2 BynPl_2_1 GorSq_2_2"/>
    </person>
    <person id="pedestrian209" depart="671.00">
        <walk edges="GowSt_1_2 MaiQu_2_1"/>
    </person>
    <person id="pedestrian210" depart="673.00">
        <walk edges="HunSt_1_2 TorPl_2_3 TorPl_2_2 GowSt_2_2"/>
    </person>
    <person id="pedestrian211" depart="676.00">
        <walk edges="BynPl_1_2 BynPl_1_1 TorPl_1_4 GowSt_1_3 GowSt_1_2 MaiQu_1_1"/>
    </person>
    <person id="pedestrian212" depart="677.00">
        <walk edges="TorPl_1_4 BynPl_1_1 BynPl_1_2"/>
    </person>
    <person id="pedestrian213" depart="678.00">
        <walk edges="GorSq_1_3 GorSq_1_2 BynPl_1_3 BynPl_1_2 BynPl_1_1 TorPl_1_4 TorPl_1_3"/>
    </person>
    <person id="pedestrian214" depart="681.00">
        <walk edges="BynPl_2_3 TorPl_1_4 TorPl_1_3 CheMe_1_1"/>
    </person>
    <person id="pedestrian215" depart="682.00">
        <walk edges="MalSt_2_1 TorPl_2_1"/>
    </person>
    <person id="pedestrian216" depart="682.00">
        <walk edges="GowSt_2_2 TorPl_2_1 MalSt_2_1"/>
    </person>
    <person id="pedestrian217" depart="684.00">
        <walk edges="UniSt_2_1 GowSt_2_2 TorPl_1_3 TorPl_1_2 TorPl_1_1"/>
    </person>
    <person id="pedestrian218" depart="684.00">
        <walk edges="UniSt_1_1 GowSt_1_3 TorPl_1_4 BynPl_1_1 BynPl_1_2 BynPl_1_3 GorSq_1_1"/>
    </person>
    <person id="pedestrian219" depart="686.00">
        <walk edges="GowSt_1_4 TorPl_1_4 BynPl_1_1 BynPl_1_2"/>
    </person>
    <person id="pedestrian220" depart="690.00">
        <walk edges="GorSq_1_3 GorSq_1_2 BynPl_1_3 BynPl_1_2 BynPl_1_1 TorPl_1_4 TorPl_2_2 TorPl_2_3"/>
    </person>