<?xml version="1.0" encoding="UTF-8"?>

<!-- generated on 2026-04-01 12:55:23.604246 by Eclipse SUMO randomTrips.py UNKNOWN
<configuration>
    <net-file value="../networks/extended/main.net.xml"/>
    <output-trip-file value="../routes/extended/eval/100/pedestrian.trips.xml"/>
    <route-file value="../routes/extended/eval/100/pedestrian.rou.xml"/>
    <pedestrians value="True"/>
    <prefix value="pedestrian"/>
    <seed value="100"/>
    <insertion-density value="300.0"/>
    <binomial value="100"/>
</configuration>
-->

<!-- generated on 2026-04-01T12:55:23.579327+00:00 by Eclipse SUMO duarouter 1.25.0
<duarouterConfiguration xmlns:xsi="http://www.w3.org/2001/XMLSchema-instance" xsi:noNamespaceSchemaLocation="http://sumo.dlr.de/xsd/duarouterConfiguration.xsd">

    <input>
        <net-file value="../networks/extended/main.net.xml"/>
        <route-files value="../routes/extended/eval/100/pedestrian.trips.xml"/>
    </input>

    <output>
        <output-file value="../routes/extended/eval/100/pedestrian.rou.xml"/>
        <alternatives-output value="NUL"/>
    </output>

    <time>
        <begin value="0"/>
        <end value="3600.0"/>
    </time>

    <report>
        <no-warnings value="true"/>
        <ignore-errors value="true"/>
        <no-step-log value="true"/>
    </report>

</duarouterConfiguration>
-->

<routes xmlns:xsi="http://www.w3.org/2001/XMLSchema-instance" xsi:noNamespaceSchemaLocation="http://sumo.dlr.de/xsd/routes_file.xsd">
    <person id="pedestrian0" depart="1.00">
        <walk edges="RidGa_1_1 TorPl_2_2 TorPl_2_1 MalSt_2_1"/>
    </person>
    <person id="pedestrian1" depart="3.00">
        <walk edges="GowSt_2_1 GowSt_2_2"/>
    </person>
    <person id="pedestrian2" depart="5.00">
        <walk edges="TorPl_1_2 CheMe_1_1"/>
    </person>
    <person id="pedestrian3" depart="6.00">
        <walk edges="MalPl_1_1 BynPl_1_1 BynPl_2_2"/>
    </person>
    <person id="pedestrian4" depart="8.00">
        <walk edges="MalPl_2_1 MalPl_1_1"/>
    </person>
    <person id="pedestrian5" depart="14.00">
        <walk edges="BynPl_1_2 BynPl_1_1 TorPl_1_4 TorPl_2_2"/>
    </person>
    <person id="pedestrian6" depart="16.00">
        <walk edges="GowSt_1_3 TorPl_1_4 BynPl_1_1 BynPl_2_2 BynPl_2_1 GorSq_2_2 GorSq_2_1"/>
    </person>
    <person id="pedestrian7" depart="18.00">
        <walk edges="MalPl_2_1 TorPl_1_4 GowSt_1_4"/>
    </person>
    <person id="pedestrian8" depart="19.00">
        <walk edges="CheMe_1_1 TorPl_1_3 TorPl_1_4 BynPl_1_1 BynPl_1_2 BynPl_1_3 GorSq_1_1"/>
    </person>
    <person id="pedestrian9" depart="30.00">
        <walk edges="GorSq_1_1 BynPl_1_3 BynPl_1_2 BynPl_1_1 TorPl_1_4 TorPl_2_2 TorPl_2_3 HunSt_1_2"/>
    </person>
    <person id="pedestrian10" depart="31.00">
        <walk edges="GorSq_1_1 BynPl_1_3 BynPl_2_2"/>
    </person>
    <person id="pedestrian11" depart="34.00">
        <walk edges="GorSq_2_3 BynPl_1_3 BynPl_1_2 BynPl_1_1 TorPl_1_4 GowSt_1_3 GowSt_1_2 MaiQu_2_1"/>
    </person>
    <person id="pedestrian12" depart="34.00">
        <walk edges="RidGa_1_1 TorPl_2_2 TorPl_2_1 MalSt_1_1"/>
    </person>
    <person id="pedestrian13" depart="36.00">
        <walk edges="CheMe_1_1 TorPl_1_2 TorPl_2_3 RidGa_1_1"/>
    </person>
    <person id="pedestrian14" depart="38.00">
        <walk edges="TorPl_2_2 GowSt_1_4"/>
    </person>
    <person id="pedestrian15" depart="40.00">
        <walk edges="MalPl_2_1 TorPl_1_4 GowSt_2_1"/>
    </person>
    <person id="pedestrian16" depart="42.00">
        <walk edges="UniSt_1_1 GowSt_1_3 TorPl_1_4 BynPl_1_1 BynPl_2_2 BynPl_2_1"/>
    </person>
    <person id="pedestrian17" depart="44.00">
        <walk edges="TorPl_2_1 TorPl_1_4"/>
    </person>
    <person id="pedestrian18" depart="46.00">
        <walk edges="UniSt_2_1 GowSt_2_2 GowSt_1_4"/>
    </person>
    <person id="pedestrian19" depart="47.00">
        <walk edges="BynPl_1_2 BynPl_1_3"/>
    </person>
    <person id="pedestrian20" depart="47.00">
        <walk edges="CheMe_2_1 TorPl_1_3 GowSt_2_2 UniSt_2_1"/>
    </person>
    <person id="pedestrian21" depart="48.00">
        <walk edges="GorSq_1_1 BynPl_1_3 BynPl_1_2 BynPl_1_1 TorPl_1_4 GowSt_1_3 GowSt_1_2 GowSt_1_1"/>
    </person>
    <person id="pedestrian22" depart="50.00">
        <walk edges="GorSq_1_3 GorSq_1_2 BynPl_1_3 BynPl_1_2 BynPl_1_1 TorPl_1_4 TorPl_1_3 CheMe_2_1"/>
    </person>
    <person id="pedestrian23" depart="56.00">
        <walk edges="GowSt_1_2 GowSt_1_3 TorPl_1_3 CheMe_1_1"/>
    </person>
    <person id="pedestrian24" depart="58.00">
        <walk edges="GowSt_1_2 GowSt_1_3 TorPl_1_4 BynPl_1_1 BynPl_1_2 BynPl_1_3 GorSq_2_3"/>
    </person>
    <person id="pedestrian25" depart="58.00">
        <walk edges="TorPl_2_4 TorPl_2_3 TorPl_2_2"/>
    </person>
    <person id="pedestrian26" depart="64.00">
        <walk edges="MaiQu_2_1 GowSt_1_2 GowSt_1_3 TorPl_1_4 BynPl_1_1 BynPl_1_2 BynPl_1_3 GorSq_1_1"/>
    </person>
    <person id="pedestrian27" depart="66.00">
        <walk edges="CheMe_2_1 TorPl_1_3 TorPl_1_4 BynPl_1_1 BynPl_2_2 BynPl_2_1 GorSq_2_2"/>
    </person>
    <person id="pedestrian28" depart="67.00">
        <walk edges="TorPl_2_3 TorPl_2_2 TorPl_1_4 BynPl_1_1 BynPl_1_2 BynPl_1_3 GorSq_1_1"/>
    </person>
    <person id="pedestrian29" depart="69.00">
        <walk edges="CheMe_2_1 TorPl_1_3 GowSt_1_4"/>
    </person>
    <person id="pedestrian30" depart="70.00">
        <walk edges="MalSt_2_1 TorPl_2_1 GowSt_2_2"/>
    </person>
    <person id="pedestrian31" depart="73.00">
        <walk edges="MalPl_1_1 TorPl_1_4 TorPl_1_3"/>
    </person>
    <person id="pedestrian32" depart="75.00">
        <walk edges="GorSq_2_1 GorSq_2_2 BynPl_2_1 BynPl_2_2"/>
    </person>
    <person id="pedestrian33" depart="76.00">
        <walk edges="BynPl_2_2 BynPl_2_3 TorPl_2_1 TorPl_2_2 TorPl_2_3 HunSt_2_1"/>
    </person>
    <person id="pedestrian34" depart="77.00">
        <walk edges="TorPl_1_2 TorPl_1_3 TorPl_1_4 BynPl_1_1 BynPl_2_2 BynPl_2_1 GorSq_2_2"/>
    </person>
    <person id="pedestrian35" depart="78.00">
        <walk edges="TorPl_2_2 TorPl_1_4 BynPl_1_1 BynPl_1_2"/>
    </person>
    <person id="pedestrian36" depart="80.00">
        <walk edges="GowSt_1_2 GowSt_1_1"/>
    </person>
    <person id="pedestrian37" depart="81.00">
        <walk edges="HunSt_1_2 TorPl_1_2"/>
    </person>
    <person id="pedestrian38" depart="83.00">
        <walk edges="BynPl_2_3 TorPl_1_4 GowSt_1_3 GowSt_1_2 MaiQu_2_1"/>
    </person>
    <person id="pedestrian39" depart="84.00">
        <walk edges="GorSq_1_2 BynPl_1_3 BynPl_2_2 BynPl_2_3 MalSt_1_1"/>
    </person>
    <person id="pedestrian40" depart="87.00">
        <walk edges="UniSt_1_1 GowSt_2_2 TorPl_1_3 TorPl_1_2"/>
    </person>
    <person id="pedestrian41" depart="91.00">
        <walk edges="GorSq_2_3 GorSq_1_2 GorSq_1_3"/>
    </person>
    <person id="pedestrian42" depart="92.00">
        <walk edges="GowSt_2_3 GowSt_1_3 TorPl_1_4 BynPl_1_1 BynPl_2_2 BynPl_2_1 GorSq_2_2 GorSq_2_1"/>
    </person>
    <person id="pedestrian43" depart="92.00">
        <walk edges="BynPl_2_1 BynPl_1_3 GorSq_1_1"/>
    </person>
    <person id="pedestrian44" depart="95.00">
        <walk edges="MaiQu_1_1 GowSt_1_2 GowSt_1_3 TorPl_1_3 TorPl_1_2 HunSt_2_2"/>
    </person>
    <person id="pedestrian45" depart="99.00">
        <walk edges="BynPl_1_1"/>
    </person>
    <person id="pedestrian46" depart="102.00">
        <walk edges="TorPl_1_1 TorPl_1_2 CheMe_2_1"/>
    </person>
    <person id="pedestrian47" depart="104.00">
        <walk edges="GorSq_1_3 GorSq_1_2 GorSq_1_1"/>
    </person>
    <person id="pedestrian48" depart="106.00">
        <walk edges="TorPl_2_2 RidGa_2_1"/>
    </person>
    <person id="pedestrian49" depart="109.00">
        <walk edges="TorPl_1_2 TorPl_1_3 GowSt_1_4"/>
    </person>
    <person id="pedestrian50" depart="109.00">
        <walk edges="GorSq_1_1 BynPl_1_3 BynPl_1_2 BynPl_1_1 TorPl_1_4 GowSt_2_2"/>
    </person>
    <person id="pedestrian51" depart="110.00">
        <walk edges="GowSt_1_4 GowSt_1_3 UniSt_1_1"/>
    </person>
    <person id="pedestrian52" depart="119.00">
        <walk edges="TorPl_2_3 TorPl_2_2 TorPl_1_4 BynPl_1_1 BynPl_1_2 BynPl_1_3 GorSq_2_3"/>
    </person>
    <person id="pedestrian53" depart="124.00">
        <walk edges="GowSt_1_3 TorPl_1_3 CheMe_2_1"/>
    </person>
    <person id="pedestrian54" depart="126.00">
        <walk edges="CheMe_1_1 TorPl_1_3 GowSt_2_2 UniSt_1_1"/>
    </person>
    <person id="pedestrian55" depart="129.00">
        <walk edges="TorPl_1_1 TorPl_1_2 TorPl_1_3 TorPl_1_4 BynPl_1_1 BynPl_2_2 BynPl_2_1 GorSq_2_2"/>
    </person>
    <person id="pedestrian56" depart="129.00">
        <walk edges="GorSq_2_2 GorSq_1_2 GorSq_1_1"/>
    </person>
    <person id="pedestrian57" depart="130.00">
        <walk edges="BynPl_1_1 TorPl_1_4 TorPl_2_2 TorPl_2_3"/>
    </person>
    <person id="pedestrian58" depart="134.00">
        <walk edges="TorPl_1_2 TorPl_1_3"/>
    </person>
    <person id="pedestrian59" depart="135.00">
        <walk edges="MaiQu_1_1 MaiQu_2_1"/>
    </person>
    <person id="pedestrian60" depart="143.00">
        <walk edges="TorPl_2_3 TorPl_2_2 GowSt_1_3 GowSt_1_2 MaiQu_1_1"/>
    </person>
    <person id="pedestrian61" depart="147.00">
        <walk edges="BynPl_2_3 BynPl_2_2 BynPl_1_3 GorSq_2_3"/>
    </person>
    <person id="pedestrian62" depart="149.00">
        <walk edges="GowSt_2_1 TorPl_1_4 BynPl_1_1 BynPl_1_2 BynPl_1_3 GorSq_1_2 GorSq_1_3"/>
    </person>
    <person id="pedestrian63" depart="150.00">
        <walk edges="GowSt_1_1 GowSt_1_2 GowSt_1_3"/>
    </person>
    <person id="pedestrian64" depart="152.00">
        <walk edges="MalPl_2_1"/>
    </person>
    <person id="pedestrian65" depart="152.00">
        <walk edges="CheMe_2_1 TorPl_1_3 TorPl_1_4 BynPl_1_1 BynPl_2_2 BynPl_2_1"/>
    </person>
    <person id="pedestrian66" depart="154.00">
        <walk edges="GorSq_1_2 BynPl_1_3 BynPl_1_2 BynPl_1_1 TorPl_1_4 TorPl_2_2 RidGa_2_1"/>
    </person>
    <person id="pedestrian67" depart="160.00">
        <walk edges="RidGa_1_1 TorPl_2_3 TorPl_1_2 CheMe_1_1"/>
    </person>
    <person id="pedestrian68" depart="164.00">
        <walk edges="GowSt_2_2 TorPl_1_4 MalSt_1_1"/>
    </person>
    <person id="pedestrian69" depart="169.00">
        <walk edges="HunSt_1_2 TorPl_2_3 TorPl_2_2 TorPl_1_4 BynPl_1_1 BynPl_1_2 BynPl_1_3 GorSq_2_3"/>
    </person>
    <person id="pedestrian70" depart="173.00">
        <walk edges="GowSt_1_1 GowSt_1_2 GowSt_1_3 TorPl_1_3"/>
    </person>
    <person id="pedestrian71" depart="173.00">
        <walk edges="GorSq_2_2 BynPl_2_1 BynPl_2_2 BynPl_1_1 TorPl_1_4 GowSt_1_3 GowSt_1_2 GowSt_1_1"/>
    </person>
    <person id="pedestrian72" depart="174.00">
        <walk edges="GowSt_2_3 GowSt_2_2 TorPl_1_3 TorPl_1_2 HunSt_1_1"/>
    </person>
    <person id="pedestrian73" depart="180.00">
        <walk edges="GowSt_2_1 GowSt_1_3 GowSt_1_2 MaiQu_2_1"/>
    </person>
    <person id="pedestrian74" depart="181.00">
        <walk edges="HunSt_1_2 TorPl_1_1"/>
    </person>
    <person id="pedestrian75" depart="183.00">
        <walk edges="TorPl_1_4 GowSt_2_1"/>
    </person>
    <person id="pedestrian76" depart="186.00">
        <walk edges="HunSt_1_1 TorPl_1_2 TorPl_1_3 TorPl_1_4 BynPl_1_1 BynPl_2_2 BynPl_2_1 GorSq_2_2"/>
    </person>
    <person id="pedestrian77" depart="186.00">
        <walk edges="TorPl_1_3 TorPl_1_4 BynPl_1_1 BynPl_2_2"/>
    </person>
    <person id="pedestrian78" depart="188.00">
        <walk edges="GowSt_1_1 MaiQu_2_1"/>
    </person>
    <person id="pedestrian79" depart="190.00">
        <walk edges="GorSq_1_3 GorSq_1_2 BynPl_1_3 BynPl_1_2 BynPl_1_1 TorPl_1_4 GowSt_1_3 GowSt_1_2 MaiQu_1_1"/>
    </person>
    <person id="pedestrian80" depart="190.00">
        <walk edges="HunSt_2_1 TorPl_1_2 TorPl_1_3 TorPl_1_4 MalPl_2_1"/>
    </person>
    <person id="pedestrian81" depart="194.00">
        <walk edges="HunSt_1_1 TorPl_1_2"/>
    </person>
    <person id="pedestrian82" depart="196.00">
        <walk edges="GowSt_1_3 TorPl_1_3 TorPl_1_2 TorPl_2_4"/>
    </person>
    <person id="pedestrian83" depart="198.00">
        <walk edges="GowSt_2_1 TorPl_1_3 TorPl_1_2"/>
    </person>
    <person id="pedestrian84" depart="202.00">
        <walk edges="BynPl_2_2 BynPl_1_3 GorSq_1_2 GorSq_1_3"/>
    </person>
    <person id="pedestrian85" depart="209.00">
        <walk edges="MaiQu_1_1 GowSt_1_2 GowSt_1_3 TorPl_1_4 MalSt_1_1"/>
    </person>
    <person id="pedestrian86" depart="212.00">
        <walk edges="TorPl_1_2 TorPl_1_3 GowSt_2_2 UniSt_1_1"/>
    </person>
    <person id="pedestrian87" depart="213.00">
        <walk edges="GorSq_1_1 BynPl_1_3 BynPl_1_2 BynPl_1_1 TorPl_1_4 GowSt_1_3 UniSt_1_1"/>
    </person>
    <person id="pedestrian88" depart="215.00">
        <walk edges="HunSt_1_2 TorPl_2_3 TorPl_2_2 GowSt_1_3"/>
    </person>
    <person id="pedestrian89" depart="215.00">
        <walk edges="GowSt_2_2 TorPl_2_2 RidGa_1_1"/>
    </person>
    <person id="pedestrian90" depart="222.00">
        <walk edges="GorSq_2_3 BynPl_1_3 BynPl_1_2 BynPl_1_1 TorPl_1_4 TorPl_1_3 CheMe_1_1"/>
    </person>
    <person id="pedestrian91" depart="223.00">
        <walk edges="MaiQu_2_1 GowSt_1_2 GowSt_1_3 TorPl_1_3 CheMe_1_1"/>
    </person>
    <person id="pedestrian92" depart="228.00">
        <walk edges="GowSt_1_1 GowSt_1_2 GowSt_1_3 TorPl_1_4"/>
    </person>
    <person id="pedestrian93" depart="229.00">
        <walk edges="GorSq_1_1 BynPl_1_3 BynPl_1_2 BynPl_1_1 TorPl_1_4 TorPl_1_3 TorPl_1_2"/>
    </person>
    <person id="pedestrian94" depart="230.00">
        <walk edges="CheMe_2_1 TorPl_1_3 GowSt_1_3 GowSt_1_2 MaiQu_1_1"/>
    </person>
    <person id="pedestrian95" depart="234.00">
        <walk edges="GorSq_2_2 BynPl_2_1"/>
    </person>
    <person id="pedestrian96" depart="235.00">
        <walk edges="MaiQu_1_1 GowSt_1_2 GowSt_1_3 TorPl_1_4 BynPl_1_1 BynPl_2_2 BynPl_2_1 GorSq_2_2"/>
    </person>
    <person id="pedestrian97" depart="235.00">
        <walk edges="TorPl_1_1 HunSt_1_2"/>
    </person>
    <person id="pedestrian98" depart="242.00">
        <walk edges="TorPl_2_2 TorPl_2_1 BynPl_2_3 BynPl_2_2"/>
    </person>
    <person id="pedestrian99" depart="245.00">
        <walk edges="TorPl_2_1 BynPl_2_3 BynPl_2_2"/>
    </person>
    <person id="pedestrian100" depart="247.00">
        <walk edges="GowSt_2_1 TorPl_2_1 BynPl_2_3 BynPl_2_2 BynPl_2_1 GorSq_2_2 GorSq_2_1"/>
    </person>
    <person id="pedestrian101" depart="248.00">
        <walk edges="GowSt_2_2 TorPl_2_1 MalSt_2_1"/>
    </person>
    <person id="pedestrian102" depart="249.00">
        <walk edges="UniSt_2_1 GowSt_2_2 TorPl_1_4 BynPl_1_1 BynPl_2_2 BynPl_2_1 GorSq_2_2 GorSq_2_1"/>
    </person>
    <person id="pedestrian103" depart="249.00">
        <walk edges="BynPl_2_1 BynPl_2_2 BynPl_1_1"/>
    </person>
    <person id="pedestrian104" depart="255.00">
        <walk edges="MaiQu_2_1 GowSt_1_2 GowSt_1_3 TorPl_1_4 MalPl_2_1"/>
    </person>
    <person id="pedestrian105" depart="255.00">
        <walk edges="BynPl_2_3"/>
    </person>
    <person id="pedestrian106" depart="258.00">
        <walk edges="MalPl_1_1 BynPl_1_1"/>
    </person>
    <person id="pedestrian107" depart="259.00">
        <walk edges="UniSt_1_1 GowSt_1_3 TorPl_1_4 BynPl_1_1 BynPl_2_2 BynPl_2_1 GorSq_2_2"/>
    </person>
    <person id="pedestrian108" depart="261.00">
        <walk edges="CheMe_2_1 TorPl_1_3 GowSt_1_4"/>
    </person>
    <person id="pedestrian109" depart="262.00">
        <walk edges="CheMe_1_1 TorPl_1_3 TorPl_1_4 BynPl_1_1 BynPl_2_2 BynPl_2_1 GorSq_2_2"/>
    </person>
    <person id="pedestrian110" depart="264.00">
        <walk edges="MalPl_2_1 BynPl_1_1 BynPl_2_2 BynPl_2_1 GorSq_2_2 GorSq_2_1"/>
    </person>
    <person id="pedestrian111" depart="268.00">
        <walk edges="GorSq_1_1 BynPl_1_3 BynPl_1_2 BynPl_1_1 TorPl_1_4 GowSt_1_3 GowSt_1_2 GowSt_1_1"/>
    </person>
    <person id="pedestrian112" depart="270.00">
        <walk edges="MalPl_2_1 TorPl_1_4 GowSt_1_3 GowSt_1_2 MaiQu_2_1"/>
    </person>
    <person id="pedestrian113" depart="273.00">
        <walk edges="TorPl_2_2 TorPl_2_3 TorPl_2_4"/>
    </person>
    <person id="pedestrian114" depart="273.00">
        <walk edges="TorPl_2_3 TorPl_2_2 TorPl_1_4 BynPl_1_1 BynPl_1_2 BynPl_1_3 GorSq_1_2"/>
    </person>
    <person id="pedestrian115" depart="275.00">
        <walk edges="TorPl_2_2 TorPl_1_4 BynPl_1_1 BynPl_1_2 BynPl_1_3 GorSq_1_2 GorSq_1_3"/>
    </person>
    <person id="pedestrian116" depart="275.00">
        <walk edges="RidGa_1_1 TorPl_2_3"/>
    </person>
    <person id="pedestrian117" depart="277.00">
        <walk edges="GowSt_1_3 TorPl_1_4 MalSt_1_1"/>
    </person>
    <person id="pedestrian118" depart="278.00">
        <walk edges="GorSq_2_2 BynPl_2_1 BynPl_2_2 BynPl_2_3 TorPl_2_1"/>
    </person>
    <person id="pedestrian119" depart="278.00">
        <walk edges="GorSq_1_3 GorSq_1_2 BynPl_1_3"/>
    </person>
    <person id="pedestrian120" depart="279.00">
        <walk edges="UniSt_2_1 GowSt_2_2 TorPl_1_3 TorPl_1_2 TorPl_2_4"/>
    </person>
    <person id="pedestrian121" depart="280.00">
        <walk edges="MalPl_1_1 TorPl_1_4 GowSt_1_3 GowSt_1_2"/>
    </person>
    <person id="pedestrian122" depart="281.00">
        <walk edges="BynPl_2_3 TorPl_2_1"/>
    </person>
    <person id="pedestrian123" depart="283.00">
        <walk edges="UniSt_1_1 GowSt_1_3 TorPl_1_4 BynPl_1_1 BynPl_1_2"/>
    </person>
    <person id="pedestrian124" depart="283.00">
        <walk edges="MalSt_2_1 TorPl_2_1 GowSt_1_3 UniSt_1_1"/>
    </person>
    <person id="pedestrian125" depart="283.00">
        <walk edges="MalPl_2_1 TorPl_1_4 TorPl_1_3 TorPl_1_2 HunSt_1_1"/>
    </person>
    <person id="pedestrian126" depart="283.00">
        <walk edges="BynPl_2_2 BynPl_1_2"/>
    </person>
    <person id="pedestrian127" depart="286.00">
        <walk edges="GowSt_1_1 GowSt_1_2 GowSt_1_3 TorPl_1_3 TorPl_1_2 HunSt_2_2"/>
    </person>
    <person id="pedestrian128" depart="290.00">
        <walk edges="RidGa_2_1 TorPl_2_3 TorPl_1_2 CheMe_2_1"/>
    </person>
    <person id="pedestrian129" depart="292.00">
        <walk edges="CheMe_1_1 TorPl_1_2 TorPl_2_3 RidGa_1_1"/>
    </person>
    <person id="pedestrian130" depart="293.00">
        <walk edges="GorSq_1_3 GorSq_1_2 BynPl_1_3 BynPl_2_2 BynPl_2_3"/>
    </person>
    <person id="pedestrian131" depart="299.00">
        <walk edges="GowSt_2_3 GowSt_2_2 TorPl_1_3"/>
    </person>
    <person id="pedestrian132" depart="300.00">
        <walk edges="GorSq_1_2 BynPl_1_3 BynPl_1_2 BynPl_1_1 TorPl_1_4 GowSt_1_3 GowSt_1_2 GowSt_1_1"/>
    </person>
    <person id="pedestrian133" depart="305.00">
        <walk edges="BynPl_1_3 BynPl_1_2 BynPl_1_1 TorPl_1_4 GowSt_1_3 GowSt_1_2"/>
    </person>
    <person id="pedestrian134" depart="309.00">
        <walk edges="HunSt_1_2 TorPl_2_3 TorPl_2_2 GowSt_1_3 GowSt_1_2 GowSt_1_1"/>
    </person>
    <person id="pedestrian135" depart="310.00">
        <walk edges="TorPl_1_3 TorPl_2_1 MalSt_2_1"/>
    </person>
    <person id="pedestrian136" depart="312.00">
        <walk edges="BynPl_1_2 BynPl_1_1 MalPl_2_1"/>
    </person>
    <person id="pedestrian137" depart="316.00">
        <walk edges="TorPl_2_4"/>
    </person>
    <person id="pedestrian138" depart="321.00">
        <walk edges="BynPl_2_3 BynPl_2_2 BynPl_1_3 GorSq_1_2 GorSq_1_3"/>
    </person>
    <person id="pedestrian139" depart="323.00">
        <walk edges="TorPl_1_1 TorPl_1_2 TorPl_1_3 GowSt_2_2 GowSt_2_3"/>
    </person>
    <person id="pedestrian140" depart="324.00">
        <walk edges="TorPl_1_1 TorPl_1_2 TorPl_1_3 TorPl_1_4 BynPl_1_1 BynPl_1_2"/>
    </person>
    <person id="pedestrian141" depart="324.00">
        <walk edges="HunSt_1_1 TorPl_1_2 CheMe_1_1"/>
    </person>
    <person id="pedestrian142" depart="325.00">
        <walk edges="RidGa_2_1 TorPl_2_3 TorPl_1_1"/>
    </person>
    <person id="pedestrian143" depart="328.00">
        <walk edges="UniSt_2_1 GowSt_2_2 TorPl_2_2 TorPl_2_3 HunSt_1_2"/>
    </person>
    <person id="pedestrian144" depart="329.00">
        <walk edges="RidGa_2_1 TorPl_2_3 TorPl_1_1"/>
    </person>
    <person id="pedestrian145" depart="332.00">
        <walk edges="MalSt_1_1 TorPl_1_4 TorPl_1_3 CheMe_1_1"/>
    </person>
    <person id="pedestrian146" depart="332.00">
        <walk edges="GowSt_2_3 GowSt_2_2 TorPl_1_3"/>
    </person>
    <person id="pedestrian147" depart="333.00">
        <walk edges="UniSt_2_1 GowSt_2_2 TorPl_1_4 BynPl_1_1 BynPl_2_2"/>
    </person>
    <person id="pedestrian148" depart="336.00">
        <walk edges="TorPl_2_4 TorPl_1_2 CheMe_2_1"/>
    </person>
    <person id="pedestrian149" depart="338.00">
        <walk edges="TorPl_1_4 MalSt_1_1"/>
    </person>
    <person id="pedestrian150" depart="346.00">
        <walk edges="GorSq_1_1 BynPl_1_3 BynPl_1_2 BynPl_1_1 TorPl_1_4 TorPl_1_3 TorPl_1_2 HunSt_2_1"/>
    </person>
    <person id="pedestrian151" depart="348.00">
        <walk edges="MaiQu_2_1 GowSt_1_2 UniSt_2_1"/>
    </person>
    <person id="pedestrian152" depart="349.00">
        <walk edges="RidGa_1_1 TorPl_2_3 TorPl_2_4"/>
    </person>
    <person id="pedestrian153" depart="351.00">
        <walk edges="MaiQu_2_1 GowSt_1_2 GowSt_1_3 TorPl_1_3 TorPl_1_2"/>
    </person>
    <person id="pedestrian154" depart="359.00">
        <walk edges="CheMe_2_1 TorPl_1_3 TorPl_1_4 BynPl_1_1 BynPl_1_2 BynPl_1_3 GorSq_1_2 GorSq_1_3"/>
    </person>
    <person id="pedestrian155" depart="360.00">
        <walk edges="GorSq_2_2 BynPl_2_1 BynPl_2_2 BynPl_2_3 TorPl_2_1 GowSt_1_4"/>
    </person>
    <person id="pedestrian156" depart="360.00">
        <walk edges="GorSq_2_3 BynPl_1_3 BynPl_1_2 BynPl_1_1 TorPl_1_4 GowSt_1_3 GowSt_2_3"/>
    </person>
    <person id="pedestrian157" depart="366.00">
        <walk edges="GowSt_2_3 GowSt_2_2"/>
    </person>
    <person id="pedestrian158" depart="366.00">
        <walk edges="GowSt_1_2 GowSt_1_3 TorPl_1_4 BynPl_1_1 BynPl_2_2"/>
    </person>
    <person id="pedestrian159" depart="369.00">
        <walk edges="RidGa_1_1 TorPl_2_3 HunSt_2_1"/>
    </person>
    <person id="pedestrian160" depart="370.00">
        <walk edges="BynPl_2_2 BynPl_2_3 TorPl_2_1"/>
    </person>
    <person id="pedestrian161" depart="370.00">
        <walk edges="GowSt_1_1 GowSt_1_2 GowSt_1_3 TorPl_1_3 TorPl_1_2 HunSt_1_1"/>
    </person>
    <person id="pedestrian162" depart="373.00">
        <walk edges="UniSt_1_1 GowSt_2_2 TorPl_1_3 TorPl_1_2 TorPl_1_1"/>
    </person>
    <person id="pedestrian163" depart="373.00">
        <walk edges="BynPl_2_2 BynPl_1_1"/>
    </person>
    <person id="pedestrian164" depart="374.00">
        <walk edges="GorSq_2_2 BynPl_2_1 BynPl_2_2 BynPl_1_1 TorPl_1_4 GowSt_2_2 UniSt_2_1"/>
    </person>
    <person id="pedestrian165" depart="377.00">
        <walk edges="GowSt_1_4 GowSt_1_3 GowSt_1_2 MaiQu_2_1"/>
    </person>
    <person id="pedestrian166" depart="378.00">
        <walk edges="MaiQu_2_1 GowSt_1_2 GowSt_1_3 TorPl_1_4 BynPl_1_1 BynPl_2_2 BynPl_2_1 GorSq_2_2"/>
    </person>
    <person id="pedestrian167" depart="381.00">
        <walk edges="HunSt_2_1 TorPl_2_3 TorPl_2_2 TorPl_2_1 BynPl_2_3 BynPl_2_2"/>
    </person>
    <person id="pedestrian168" depart="382.00">
        <walk edges="GorSq_2_1 GorSq_2_2 BynPl_2_1 BynPl_2_2 BynPl_1_1 TorPl_1_4 TorPl_1_3 CheMe_2_1"/>
    </person>
    <person id="pedestrian169" depart="383.00">
        <walk edges="HunSt_1_1 HunSt_1_2"/>
    </person>
    <person id="pedestrian170" depart="386.00">
        <walk edges="TorPl_1_3 GowSt_1_4"/>
    </person>
    <person id="pedestrian171" depart="387.00">
        <walk edges="BynPl_2_1 BynPl_2_2 BynPl_2_3"/>
    </person>
    <person id="pedestrian172" depart="390.00">
        <walk edges="BynPl_1_3 BynPl_1_2 BynPl_1_1 MalPl_2_1"/>
    </person>
    <person id="pedestrian173" depart="390.00">
        <walk edges="TorPl_1_2 TorPl_2_3 RidGa_1_1"/>
    </person>
    <person id="pedestrian174" depart="393.00">
        <walk edges="RidGa_2_1 TorPl_2_3 HunSt_2_1"/>
    </person>
    <person id="pedestrian175" depart="395.00">
        <walk edges="GorSq_2_2 BynPl_2_1 BynPl_2_2 BynPl_1_1 TorPl_1_4 GowSt_1_3 GowSt_2_3"/>
    </person>
    <person id="pedestrian176" depart="397.00">
        <walk edges="GowSt_1_3 TorPl_1_4 BynPl_1_1"/>
    </person>
    <person id="pedestrian177" depart="397.00">
        <walk edges="MalSt_2_1 MalSt_1_1"/>
    </person>
    <person id="pedestrian178" depart="401.00">
        <walk edges="GorSq_1_2 GorSq_2_3"/>
    </person>
    <person id="pedestrian179" depart="403.00">
        <walk edges="MalPl_2_1 BynPl_1_1 BynPl_2_2"/>
    </person>
    <person id="pedestrian180" depart="406.00">
        <walk edges="RidGa_2_1 TorPl_2_2 GowSt_1_4"/>
    </person>
    <person id="pedestrian181" depart="407.00">
        <walk edges="TorPl_1_3 TorPl_1_2 TorPl_1_1"/>
    </person>
    <person id="pedestrian182" depart="408.00">
        <walk edges="TorPl_1_4 TorPl_1_3 CheMe_1_1"/>
    </person>
    <person id="pedestrian183" depart="410.00">
        <walk edges="TorPl_2_2 GowSt_1_3 GowSt_1_2 GowSt_1_1"/>
    </person>
    <person id="pedestrian184" depart="411.00">
        <walk edges="GorSq_2_2 BynPl_2_1 BynPl_2_2 BynPl_2_3 TorPl_2_1 TorPl_2_2 TorPl_2_3"/>
    </person>
    <person id="pedestrian185" depart="411.00">
        <walk edges="HunSt_1_1 TorPl_1_2 TorPl_1_3 TorPl_1_4 MalSt_1_1"/>
    </person>
    <person id="pedestrian186" depart="413.00">
        <walk edges="CheMe_1_1"/>
    </person>
    <person id="pedestrian187" depart="419.00">
        <walk edges="BynPl_1_2 BynPl_1_3"/>
    </person>
    <person id="pedestrian188" depart="419.00">
        <walk edges="TorPl_2_3 TorPl_2_2 TorPl_2_1 BynPl_2_3 BynPl_2_2 BynPl_2_1 GorSq_2_2 GorSq_2_1"/>
    </person>
    <person id="pedestrian189" depart="423.00">
        <walk edges="GorSq_1_1 BynPl_1_3"/>
    </person>
    <person id="pedestrian190" depart="423.00">
        <walk edges="BynPl_1_3 BynPl_1_2 BynPl_1_1 TorPl_1_4 GowSt_1_3 GowSt_1_2"/>
    </person>
    <person id="pedestrian191" depart="431.00">
        <walk edges="GowSt_2_3 GowSt_2_2 TorPl_1_3 TorPl_1_2 TorPl_1_1"/>
    </person>
    <person id="pedestrian192" depart="435.00">
        <walk edges="GowSt_1_1 GowSt_1_2 GowSt_1_3 TorPl_1_4 BynPl_1_1 BynPl_1_2 BynPl_1_3 GorSq_1_2"/>
    </person>
    <person id="pedestrian193" depart="435.00">
        <walk edges="TorPl_1_4 TorPl_1_3 TorPl_1_2 HunSt_1_1"/>
    </person>
    <person id="pedestrian194" depart="438.00">
        <walk edges="GorSq_2_2 BynPl_2_1 BynPl_2_2 BynPl_2_3 TorPl_2_1 GowSt_2_1"/>
    </person>
    <person id="pedestrian195" depart="440.00">
        <walk edges="BynPl_1_2 BynPl_1_3 GorSq_1_1"/>
    </person>
    <person id="pedestrian196" depart="442.00">
        <walk edges="BynPl_2_1 BynPl_2_2 BynPl_2_3 MalSt_1_1"/>
    </person>
    <person id="pedestrian197" depart="443.00">
        <walk edges="RidGa_2_1 TorPl_2_2 TorPl_2_1 BynPl_2_3 BynPl_2_2 BynPl_2_1"/>
    </person>
    <person id="pedestrian198" depart="443.00">
        <walk edges="HunSt_1_1 TorPl_1_2 TorPl_1_3 GowSt_2_2 UniSt_2_1"/>
    </person>
    <person id="pedestrian199" depart="447.00">
        <walk edges="MalSt_1_1 TorPl_1_4 TorPl_1_3 TorPl_1_2"/>
    </person>
    <person id="pedestrian200" depart="447.00">
        <walk edges="HunSt_2_2 TorPl_1_2 TorPl_1_3 TorPl_1_4 BynPl_1_1 BynPl_1_2 BynPl_1_3 GorSq_2_3"/>
    </person>
    <person id="pedestrian201" depart="447.00">
        <walk edges="MaiQu_2_1 GowSt_1_2 GowSt_1_3 TorPl_1_3 CheMe_2_1"/>
    </person>
    <person id="pedestrian202" depart="449.00">
        <walk edges="GorSq_1_2 BynPl_1_3 BynPl_1_2 BynPl_1_1 TorPl_1_4 GowSt_1_3"/>
    </person>
    <person id="pedestrian203" depart="450.00">
        <walk edges="TorPl_2_1 GowSt_1_3"/>
    </person>
    <person id="pedestrian204" depart="452.00">
        <walk edges="GorSq_1_2 BynPl_1_3 BynPl_1_2 BynPl_1_1 TorPl_1_4 TorPl_1_3 TorPl_1_2 HunSt_2_2"/>
    </person>
    <person id="pedestrian205" depart="452.00">
        <walk edges="TorPl_2_2 TorPl_2_3 TorPl_2_4"/>
    </person>
    <person id="pedestrian206" depart="455.00">
        <walk edges="HunSt_2_1 TorPl_1_2 TorPl_1_3 TorPl_1_4 BynPl_1_1 BynPl_1_2 BynPl_1_3 GorSq_1_2 GorSq_1_3"/>
    </person>
    <person id="pedestrian207" depart="458.00">
        <walk edges="BynPl_2_1 BynPl_2_2 BynPl_1_1 TorPl_1_4"/>
    </person>
    <person id="pedestrian208" depart="459.00">
        <walk edges="UniSt_1_1 GowSt_1_3"/>
    </person>
    <person id="pedestrian209" depart="459.00">
        <walk edges="TorPl_2_2 TorPl_1_4 BynPl_1_1 BynPl_1_2 BynPl_1_3 GorSq_1_2 GorSq_1_3"/>
    </person>
    <person id="pedestrian210" depart="460.00">
        <walk edges="TorPl_2_2 GowSt_2_2 UniSt_1_1"/>
    </person>
    <person id="pedestrian211" depart="462.00">
        <walk edges="TorPl_2_1 TorPl_2_2 RidGa_2_1"/>
    </person>
    <person id="pedestrian212" depart="463.00">
        <walk edges="HunSt_1_1 TorPl_1_2 TorPl_1_3 TorPl_1_4 MalPl_1_1"/>
    </person>
    <person id="pedestrian213" depart="467.00">
        <walk edges="HunSt_1_1 TorPl_1_2 TorPl_1_3 GowSt_2_2 UniSt_1_1"/>
    </person>
    <person id="pedestrian214" depart="475.00">
        <walk edges="GowSt_1_2 GowSt_1_3 TorPl_1_3 TorPl_1_2 HunSt_1_1"/>
    </person>
    <person id="pedestrian215" depart="476.00">
        <walk edges="HunSt_1_1 TorPl_1_2 CheMe_2_1"/>
    </person>
    <person id="pedestrian216" depart="476.00">
        <walk edges="MalSt_1_1 TorPl_1_4 GowSt_2_2"/>
    </person>
    <person id="pedestrian217" depart="477.00">
        <walk edges="CheMe_1_1 TorPl_1_2 HunSt_1_1"/>
    </person>
    <person id="pedestrian218" depart="477.00">
        <walk edges="HunSt_2_2 TorPl_1_2 TorPl_1_3 TorPl_1_4 BynPl_1_1 BynPl_1_2 BynPl_1_3"/>
    </person>
    <person id="pedestrian219" depart="478.00">