<?xml version="1.0" encoding="UTF-8"?>

<!-- generated on 2026-02-02 17:15:21.606552 by Eclipse SUMO randomTrips.py UNKNOWN
<configuration>
    <net-file value="../networks/extended/main.net.xml"/>
    <output-trip-file value="../routes/extended/train/6173/pedestrian.trips.xml"/>
    <route-file value="../routes/extended/train/6173/pedestrian.rou.xml"/>
    <pedestrians value="True"/>
    <prefix value="pedestrian"/>
    <seed value="6173"/>
    <insertion-density value="200.0"/>
    <binomial value="100"/>
</configuration>
-->

<!-- generated on 2026-02-02T17:15:21.589272+00:00 by Eclipse SUMO duarouter 1.25.0
<duarouterConfiguration xmlns:xsi="http://www.w3.org/2001/XMLSchema-instance" xsi:noNamespaceSchemaLocation="http://sumo.dlr.de/xsd/duarouterConfiguration.xsd">

    <input>
        <net-file value="../networks/extended/main.net.xml"/>
        <route-files value="../routes/extended/train/6173/pedestrian.trips.xml"/>
    </input>

    <output>
        <output-file value="../routes/extended/train/6173/pedestrian.rou.xml"/>
        <alternatives-output value="NUL"/>
    </output>

    <time>
        <begin value="0"/>
        <end value="3600.0"/>
    </time>

    <report>
        <no-warnings value="true"/>
        <ignore-errors value="true"/>
        <no-step-log value="true"/>
    </report>

</duarouterConfiguration>
-->

<routes xmlns:xsi="http://www.w3.org/2001/XMLSchema-instance" xsi:noNamespaceSchemaLocation="http://sumo.dlr.de/xsd/routes_file.xsd">
    <person id="pedestrian0" depart="0.00">
        <walk edges="BynPl_1_2 BynPl_1_1"/>
    </person>
    <person id="pedestrian1" depart="1.00">
        <walk edges="UniSt_1_1 GowSt_2_2 TorPl_1_3 TorPl_1_2 HunSt_1_1"/>
    </person>
    <person id="pedestrian2" depart="2.00">
        <walk edges="HunSt_1_1 TorPl_2_3 TorPl_2_2 GowSt_2_1"/>
    </person>
    <person id="pedestrian3" depart="6.00">
        <walk edges="TorPl_1_4 BynPl_1_1"/>
    </person>
    <person id="pedestrian4" depart="8.00">
        <walk edges="GowSt_2_1 GowSt_2_2"/>
    </person>
    <person id="pedestrian5" depart="15.00">
        <walk edges="HunSt_2_1 TorPl_1_2 TorPl_1_3 TorPl_1_4 BynPl_1_1 BynPl_1_2"/>
    </person>
    <person id="pedestrian6" depart="19.00">
        <walk edges="GowSt_1_1 GowSt_1_2 GowSt_2_2"/>
    </person>
    <person id="pedestrian7" depart="20.00">
        <walk edges="TorPl_2_4 TorPl_1_2 TorPl_1_3 GowSt_2_2"/>
    </person>
    <person id="pedestrian8" depart="26.00">
        <walk edges="UniSt_1_1 GowSt_1_3 TorPl_1_4 BynPl_1_1 BynPl_2_2 BynPl_2_1 GorSq_2_2 GorSq_2_1"/>
    </person>
    <person id="pedestrian9" depart="29.00">
        <walk edges="TorPl_1_1 TorPl_1_2 CheMe_2_1"/>
    </person>
    <person id="pedestrian10" depart="37.00">
        <walk edges="TorPl_1_3 TorPl_1_2 TorPl_2_3"/>
    </person>
    <person id="pedestrian11" depart="42.00">
        <walk edges="MalPl_2_1 BynPl_1_1 BynPl_1_2 BynPl_1_3 GorSq_1_2"/>
    </person>
    <person id="pedestrian12" depart="45.00">
        <walk edges="BynPl_2_2 BynPl_2_1 GorSq_2_2 GorSq_2_1"/>
    </person>
    <person id="pedestrian13" depart="49.00">
        <walk edges="TorPl_1_2 CheMe_2_1"/>
    </person>
    <person id="pedestrian14" depart="51.00">
        <walk edges="CheMe_1_1 TorPl_1_3 TorPl_1_4 MalSt_1_1"/>
    </person>
    <person id="pedestrian15" depart="58.00">
        <walk edges="GowSt_1_4 GowSt_1_3 UniSt_1_1"/>
    </person>
    <person id="pedestrian16" depart="60.00">
        <walk edges="RidGa_2_1 TorPl_2_2 GowSt_1_3 GowSt_1_2 MaiQu_1_1"/>
    </person>
    <person id="pedestrian17" depart="63.00">
        <walk edges="UniSt_1_1 GowSt_1_3 TorPl_1_4 MalPl_2_1"/>
    </person>
    <person id="pedestrian18" depart="63.00">
        <walk edges="BynPl_1_1 TorPl_1_4 TorPl_1_3 CheMe_1_1"/>
    </person>
    <person id="pedestrian19" depart="66.00">
        <walk edges="TorPl_1_2 TorPl_1_3 TorPl_1_4 BynPl_1_1 BynPl_2_2"/>
    </person>
    <person id="pedestrian20" depart="69.00">
        <walk edges="TorPl_2_2 TorPl_1_4 BynPl_1_1 BynPl_1_2 BynPl_1_3 GorSq_1_2 GorSq_1_3"/>
    </person>
    <person id="pedestrian21" depart="75.00">
        <walk edges="TorPl_1_1 TorPl_1_2"/>
    </person>
    <person id="pedestrian22" depart="75.00">
        <walk edges="UniSt_1_1 GowSt_1_3 TorPl_1_4 BynPl_1_1 BynPl_1_2 BynPl_1_3 GorSq_1_2"/>
    </person>
    <person id="pedestrian23" depart="80.00">
        <walk edges="BynPl_2_3 TorPl_1_4 TorPl_1_3"/>
    </person>
    <person id="pedestrian24" depart="82.00">
        <walk edges="RidGa_2_1 TorPl_2_3 HunSt_1_2"/>
    </person>
    <person id="pedestrian25" depart="89.00">
        <walk edges="GorSq_1_1 BynPl_1_3 BynPl_2_2 BynPl_2_3 TorPl_2_1"/>
    </person>
    <person id="pedestrian26" depart="90.00">
        <walk edges="TorPl_2_4 TorPl_2_3 TorPl_2_2 GowSt_2_1"/>
    </person>
    <person id="pedestrian27" depart="90.00">
        <walk edges="GowSt_1_3 TorPl_1_4 BynPl_1_1 BynPl_1_2 BynPl_1_3"/>
    </person>
    <person id="pedestrian28" depart="97.00">
        <walk edges="BynPl_2_2 BynPl_2_3 TorPl_2_1 TorPl_2_2 RidGa_1_1"/>
    </person>
    <person id="pedestrian29" depart="99.00">
        <walk edges="GowSt_2_1 TorPl_1_4"/>
    </person>
    <person id="pedestrian30" depart="102.00">
        <walk edges="CheMe_2_1 TorPl_1_3"/>
    </person>
    <person id="pedestrian31" depart="103.00">
        <walk edges="TorPl_1_1 TorPl_1_2 TorPl_1_3 TorPl_1_4"/>
    </person>
    <person id="pedestrian32" depart="105.00">
        <walk edges="RidGa_2_1 TorPl_2_2 TorPl_2_1 BynPl_2_3 BynPl_2_2 BynPl_2_1"/>
    </person>
    <person id="pedestrian33" depart="110.00">
        <walk edges="GowSt_1_4 TorPl_2_2 TorPl_2_3 TorPl_2_4"/>
    </person>
    <person id="pedestrian34" depart="110.00">
        <walk edges="GowSt_1_4 TorPl_2_2"/>
    </person>
    <person id="pedestrian35" depart="112.00">
        <walk edges="CheMe_2_1 TorPl_1_3 TorPl_1_4 BynPl_1_1 BynPl_1_2 BynPl_1_3 GorSq_1_1"/>
    </person>
    <person id="pedestrian36" depart="119.00">
        <walk edges="HunSt_1_1 TorPl_1_2 TorPl_1_3 GowSt_2_2"/>
    </person>
    <person id="pedestrian37" depart="139.00">
        <walk edges="GowSt_1_1 GowSt_1_2 GowSt_1_3 TorPl_1_4 BynPl_1_1 BynPl_1_2 BynPl_1_3 GorSq_2_3"/>
    </person>
    <person id="pedestrian38" depart="143.00">
        <walk edges="HunSt_2_1"/>
    </person>
    <person id="pedestrian39" depart="145.00">
        <walk edges="UniSt_2_1 UniSt_1_1"/>
    </person>
    <person id="pedestrian40" depart="148.00">
        <walk edges="GorSq_1_1 BynPl_1_3 BynPl_1_2 BynPl_1_1 TorPl_1_4 TorPl_1_3 TorPl_1_2 TorPl_1_1"/>
    </person>
    <person id="pedestrian41" depart="152.00">
        <walk edges="UniSt_1_1 GowSt_1_2 GowSt_1_1"/>
    </person>
    <person id="pedestrian42" depart="153.00">
        <walk edges="MalSt_1_1 BynPl_2_3 BynPl_2_2 BynPl_1_3 GorSq_1_2"/>
    </person>
    <person id="pedestrian43" depart="159.00">
        <walk edges="TorPl_1_3 GowSt_1_3"/>
    </person>
    <person id="pedestrian44" depart="162.00">
        <walk edges="GorSq_2_2 BynPl_2_1 BynPl_2_2 BynPl_1_1 TorPl_1_4 TorPl_1_3 CheMe_1_1"/>
    </person>
    <person id="pedestrian45" depart="171.00">
        <walk edges="HunSt_2_2 TorPl_1_2 CheMe_2_1"/>
    </person>
    <person id="pedestrian46" depart="175.00">
        <walk edges="TorPl_2_4 TorPl_2_3 TorPl_2_2 TorPl_2_1 MalSt_1_1"/>
    </person>
    <person id="pedestrian47" depart="182.00">
        <walk edges="TorPl_2_2 TorPl_2_3 HunSt_1_2"/>
    </person>
    <person id="pedestrian48" depart="186.00">
        <walk edges="TorPl_1_2 TorPl_1_3 GowSt_1_3 GowSt_1_2"/>
    </person>
    <person id="pedestrian49" depart="187.00">
        <walk edges="CheMe_1_1 TorPl_1_3 TorPl_1_4 BynPl_1_1 BynPl_1_2 BynPl_1_3"/>
    </person>
    <person id="pedestrian50" depart="188.00">
        <walk edges="GowSt_1_4 TorPl_2_2"/>
    </person>
    <person id="pedestrian51" depart="188.00">
        <walk edges="MalPl_1_1 TorPl_1_4 TorPl_1_3 TorPl_1_2 TorPl_2_4"/>
    </person>
    <person id="pedestrian52" depart="191.00">
        <walk edges="TorPl_1_4 TorPl_2_2 RidGa_2_1"/>
    </person>
    <person id="pedestrian53" depart="192.00">
        <walk edges="GorSq_1_2 BynPl_1_3 BynPl_1_2 BynPl_1_1 TorPl_1_4 GowSt_1_3 GowSt_1_2 GowSt_1_1"/>
    </person>
    <person id="pedestrian54" depart="196.00">
        <walk edges="HunSt_2_1 TorPl_1_2 TorPl_1_3 GowSt_1_3 GowSt_1_2 MaiQu_2_1"/>
    </person>
    <person id="pedestrian55" depart="196.00">
        <walk edges="MalPl_2_1 BynPl_1_1 BynPl_1_2 BynPl_1_3 GorSq_1_2 GorSq_1_3"/>
    </person>
    <person id="pedestrian56" depart="198.00">
        <walk edges="RidGa_1_1 TorPl_2_2 GowSt_2_2 GowSt_2_3"/>
    </person>
    <person id="pedestrian57" depart="202.00">
        <walk edges="GorSq_1_3 GorSq_1_2"/>
    </person>
    <person id="pedestrian58" depart="202.00">
        <walk edges="GowSt_1_4 GowSt_1_3"/>
    </person>
    <person id="pedestrian59" depart="203.00">
        <walk edges="UniSt_1_1 GowSt_2_2 TorPl_1_3 TorPl_1_2 HunSt_1_1"/>
    </person>
    <person id="pedestrian60" depart="212.00">
        <walk edges="BynPl_1_2 BynPl_1_1 TorPl_1_4 GowSt_1_3 GowSt_1_2 MaiQu_2_1"/>
    </person>
    <person id="pedestrian61" depart="213.00">
        <walk edges="MaiQu_1_1 GowSt_1_2 GowSt_1_3 TorPl_1_4 BynPl_2_3"/>
    </person>
    <person id="pedestrian62" depart="217.00">
        <walk edges="HunSt_1_2 TorPl_2_3 TorPl_2_2 TorPl_1_4 BynPl_1_1 BynPl_1_2 BynPl_1_3 GorSq_1_2"/>
    </person>
    <person id="pedestrian63" depart="217.00">
        <walk edges="TorPl_2_4 TorPl_1_2 TorPl_1_3 GowSt_1_3"/>
    </person>
    <person id="pedestrian64" depart="221.00">
        <walk edges="MaiQu_2_1 GowSt_1_2 GowSt_1_3 TorPl_1_3"/>
    </person>
    <person id="pedestrian65" depart="227.00">
        <walk edges="GorSq_2_1 GorSq_2_2 BynPl_2_1 BynPl_2_2 BynPl_1_1 TorPl_1_4 GowSt_1_3"/>
    </person>
    <person id="pedestrian66" depart="230.00">
        <walk edges="TorPl_1_1 TorPl_1_2 TorPl_1_3 TorPl_1_4 MalSt_1_1"/>
    </person>
    <person id="pedestrian67" depart="233.00">
        <walk edges="GowSt_1_3 TorPl_1_4 MalPl_2_1"/>
    </person>
    <person id="pedestrian68" depart="240.00">
        <walk edges="GorSq_1_2 BynPl_1_3 BynPl_1_2 BynPl_1_1 TorPl_1_4 TorPl_1_3 CheMe_2_1"/>
    </person>
    <person id="pedestrian69" depart="244.00">
        <walk edges="GorSq_2_1 GorSq_1_3"/>
    </person>
    <person id="pedestrian70" depart="245.00">
        <walk edges="GorSq_2_1 GorSq_1_3"/>
    </person>
    <person id="pedestrian71" depart="247.00">
        <walk edges="HunSt_2_1 TorPl_1_2 TorPl_1_3 GowSt_1_3 GowSt_1_2 GowSt_1_1"/>
    </person>
    <person id="pedestrian72" depart="249.00">
        <walk edges="GorSq_2_1 GorSq_2_2 BynPl_2_1 BynPl_2_2 BynPl_2_3 TorPl_2_1 TorPl_2_2 TorPl_2_3 HunSt_2_1"/>
    </person>
    <person id="pedestrian73" depart="251.00">
        <walk edges="GowSt_2_3 GowSt_1_3 TorPl_1_4 MalSt_1_1"/>
    </person>
    <person id="pedestrian74" depart="252.00">
        <walk edges="TorPl_2_2 TorPl_1_4 BynPl_1_1 BynPl_1_2 BynPl_1_3"/>
    </person>
    <person id="pedestrian75" depart="257.00">
        <walk edges="TorPl_2_2 TorPl_2_3"/>
    </person>
    <person id="pedestrian76" depart="265.00">
        <walk edges="GowSt_1_1 GowSt_1_2 GowSt_1_3 TorPl_1_3 TorPl_1_2 HunSt_2_2"/>
    </person>
    <person id="pedestrian77" depart="267.00">
        <walk edges="UniSt_1_1 GowSt_2_2 TorPl_1_3 TorPl_1_2 TorPl_2_4"/>
    </person>
    <person id="pedestrian78" depart="271.00">
        <walk edges="TorPl_2_2 GowSt_1_3 GowSt_1_2"/>
    </person>
    <person id="pedestrian79" depart="279.00">
        <walk edges="TorPl_1_3 TorPl_1_2 HunSt_1_2"/>
    </person>
    <person id="pedestrian80" depart="281.00">
        <walk edges="RidGa_1_1 TorPl_2_2 TorPl_1_4 BynPl_1_1 BynPl_1_2 BynPl_1_3 GorSq_1_1"/>
    </person>
    <person id="pedestrian81" depart="283.00">
        <walk edges="BynPl_1_3 BynPl_1_2 BynPl_1_1 TorPl_1_4 TorPl_2_2 TorPl_2_3"/>
    </person>
    <person id="pedestrian82" depart="284.00">
        <walk edges="GorSq_1_2 BynPl_1_3 BynPl_1_2 BynPl_1_1 TorPl_1_4 GowSt_1_3 GowSt_1_2"/>
    </person>
    <person id="pedestrian83" depart="285.00">
        <walk edges="MaiQu_2_1 GowSt_1_2 GowSt_1_3 TorPl_1_4 BynPl_1_1 BynPl_1_2 BynPl_1_3 GorSq_1_2 GorSq_1_3"/>
    </person>
    <person id="pedestrian84" depart="306.00">
        <walk edges="GorSq_2_3 BynPl_1_3 BynPl_1_2 BynPl_1_1 MalPl_1_1"/>
    </person>
    <person id="pedestrian85" depart="315.00">
        <walk edges="MaiQu_2_1 GowSt_1_2 GowSt_1_3 TorPl_1_4 BynPl_2_3"/>
    </person>
    <person id="pedestrian86" depart="318.00">
        <walk edges="BynPl_2_1 GorSq_2_2 GorSq_1_3"/>
    </person>
    <person id="pedestrian87" depart="319.00">
        <walk edges="GorSq_1_1 BynPl_1_3 BynPl_2_2 BynPl_2_3 TorPl_2_1"/>
    </person>
    <person id="pedestrian88" depart="321.00">
        <walk edges="MaiQu_2_1 GowSt_1_2 GowSt_1_3 TorPl_1_3 TorPl_1_2 TorPl_1_1"/>
    </person>
    <person id="pedestrian89" depart="323.00">
        <walk edges="GowSt_1_4 TorPl_2_1 BynPl_2_3 BynPl_2_2 BynPl_2_1"/>
    </person>
    <person id="pedestrian90" depart="328.00">
        <walk edges="HunSt_2_2 TorPl_2_3 TorPl_2_2 TorPl_2_1"/>
    </person>
    <person id="pedestrian91" depart="337.00">
        <walk edges="GorSq_2_3 GorSq_1_1"/>
    </person>
    <person id="pedestrian92" depart="341.00">
        <walk edges="TorPl_1_2 TorPl_1_3 GowSt_1_3 GowSt_1_2 MaiQu_2_1"/>
    </person>
    <person id="pedestrian93" depart="342.00">
        <walk edges="BynPl_2_2 BynPl_1_3 GorSq_1_2"/>
    </person>
    <person id="pedestrian94" depart="342.00">
        <walk edges="HunSt_1_2 TorPl_2_3 TorPl_2_2 GowSt_1_3"/>
    </person>
    <person id="pedestrian95" depart="342.00">
        <walk edges="GorSq_2_3"/>
    </person>
    <person id="pedestrian96" depart="357.00">
        <walk edges="BynPl_1_1 BynPl_1_2 BynPl_1_3 GorSq_1_2 GorSq_1_3"/>
    </person>
    <person id="pedestrian97" depart="361.00">
        <walk edges="MalSt_2_1 TorPl_2_1 TorPl_2_2 RidGa_2_1"/>
    </person>
    <person id="pedestrian98" depart="363.00">
        <walk edges="GorSq_2_1 GorSq_2_2 BynPl_2_1 BynPl_2_2 BynPl_1_1 TorPl_1_4 GowSt_1_3"/>
    </person>
    <person id="pedestrian99" depart="363.00">
        <walk edges="GorSq_2_1 GorSq_2_2 BynPl_2_1 BynPl_2_2 BynPl_1_1 TorPl_1_4 GowSt_1_3 GowSt_1_2 GowSt_1_1"/>
    </person>
    <person id="pedestrian100" depart="375.00">
        <walk edges="MalSt_2_1 TorPl_1_4"/>
    </person>
    <person id="pedestrian101" depart="376.00">
        <walk edges="RidGa_1_1 TorPl_2_3 TorPl_1_2"/>
    </person>
    <person id="pedestrian102" depart="376.00">
        <walk edges="TorPl_1_2 TorPl_2_3"/>
    </person>
    <person id="pedestrian103" depart="377.00">
        <walk edges="BynPl_2_1 BynPl_1_3 GorSq_1_1"/>
    </person>
    <person id="pedestrian104" depart="383.00">
        <walk edges="GorSq_2_3 BynPl_1_3 BynPl_2_1 GorSq_2_2"/>
    </person>
    <person id="pedestrian105" depart="384.00">
        <walk edges="HunSt_1_1 TorPl_1_2 TorPl_1_3 GowSt_1_3 GowSt_1_2 MaiQu_1_1"/>
    </person>
    <person id="pedestrian106" depart="384.00">
        <walk edges="GorSq_2_1 GorSq_2_2 BynPl_2_1 BynPl_2_2 BynPl_1_1 TorPl_1_4 TorPl_1_3 TorPl_1_2"/>
    </person>
    <person id="pedestrian107" depart="394.00">
        <walk edges="UniSt_2_1 GowSt_2_2 TorPl_1_4 MalPl_2_1"/>
    </person>
    <person id="pedestrian108" depart="401.00">
        <walk edges="BynPl_2_3 TorPl_1_4 GowSt_1_3 GowSt_2_3"/>
    </person>
    <person id="pedestrian109" depart="405.00">
        <walk edges="UniSt_2_1 GowSt_2_2 GowSt_2_1"/>
    </person>
    <person id="pedestrian110" depart="406.00">
        <walk edges="RidGa_1_1 TorPl_2_2 TorPl_1_4 BynPl_1_1 BynPl_1_2 BynPl_1_3 GorSq_1_2 GorSq_1_3"/>
    </person>
    <person id="pedestrian111" depart="408.00">
        <walk edges="TorPl_2_4 TorPl_1_2 TorPl_1_3 TorPl_1_4 BynPl_1_1"/>
    </person>
    <person id="pedestrian112" depart="411.00">
        <walk edges="UniSt_2_1 GowSt_2_2 TorPl_2_2 RidGa_2_1"/>
    </person>
    <person id="pedestrian113" depart="414.00">
        <walk edges="GowSt_1_1 MaiQu_1_1"/>
    </person>
    <person id="pedestrian114" depart="416.00">
        <walk edges="CheMe_2_1 TorPl_1_2 HunSt_1_1"/>
    </person>
    <person id="pedestrian115" depart="419.00">
        <walk edges="MaiQu_1_1 GowSt_1_2 GowSt_1_3 TorPl_1_4 BynPl_1_1 BynPl_2_2 BynPl_2_1"/>
    </person>
    <person id="pedestrian116" depart="425.00">
        <walk edges="GowSt_2_2 TorPl_1_4 MalPl_2_1"/>
    </person>
    <person id="pedestrian117" depart="425.00">
        <walk edges="HunSt_2_1 TorPl_2_3 TorPl_2_2 TorPl_2_1 MalSt_1_1"/>
    </person>
    <person id="pedestrian118" depart="426.00">
        <walk edges="TorPl_1_2 TorPl_1_3 TorPl_1_4 MalSt_1_1"/>
    </person>
    <person id="pedestrian119" depart="426.00">
        <walk edges="GowSt_2_1 GowSt_1_4"/>
    </person>
    <person id="pedestrian120" depart="438.00">
        <walk edges="GowSt_1_1 GowSt_1_2 GowSt_1_3 TorPl_2_1"/>
    </person>
    <person id="pedestrian121" depart="441.00">
        <walk edges="UniSt_2_1 GowSt_2_2 TorPl_1_4 BynPl_2_3"/>
    </person>
    <person id="pedestrian122" depart="441.00">
        <walk edges="GorSq_2_1 GorSq_2_2 BynPl_2_1 BynPl_2_2 BynPl_2_3 TorPl_2_1 TorPl_2_2"/>
    </person>
    <person id="pedestrian123" depart="443.00">
        <walk edges="MaiQu_1_1 GowSt_1_2 UniSt_1_1"/>
    </person>
    <person id="pedestrian124" depart="443.00">
        <walk edges="BynPl_2_3 BynPl_2_2 BynPl_1_3 GorSq_1_2 GorSq_1_3"/>
    </person>
    <person id="pedestrian125" depart="445.00">
        <walk edges="RidGa_1_1 TorPl_2_2 GowSt_1_4"/>
    </person>
    <person id="pedestrian126" depart="453.00">
        <walk edges="GowSt_1_1 GowSt_1_2 GowSt_1_3 TorPl_1_4 BynPl_1_1 BynPl_1_2 BynPl_1_3"/>
    </person>
    <person id="pedestrian127" depart="453.00">
        <walk edges="HunSt_1_2 TorPl_2_3 TorPl_2_2 TorPl_2_1 BynPl_2_3 BynPl_2_2 BynPl_2_1 GorSq_2_2"/>
    </person>
    <person id="pedestrian128" depart="462.00">
        <walk edges="UniSt_1_1 GowSt_2_2 TorPl_2_2 RidGa_1_1"/>
    </person>
    <person id="pedestrian129" depart="469.00">
        <walk edges="CheMe_1_1 TorPl_1_3 GowSt_1_3 GowSt_1_2 MaiQu_2_1"/>
    </person>
    <person id="pedestrian130" depart="473.00">
        <walk edges="GowSt_1_3 TorPl_1_4 BynPl_1_1 BynPl_1_2 BynPl_1_3 GorSq_1_2"/>
    </person>
    <person id="pedestrian131" depart="474.00">
        <walk edges="BynPl_2_2 BynPl_2_3 MalSt_1_1"/>
    </person>
    <person id="pedestrian132" depart="475.00">
        <walk edges="MalPl_2_1 BynPl_1_1 BynPl_1_2 BynPl_1_3 GorSq_1_2 GorSq_1_3"/>
    </person>
    <person id="pedestrian133" depart="475.00">
        <walk edges="TorPl_1_4 TorPl_2_2 TorPl_2_3 HunSt_1_2"/>
    </person>
    <person id="pedestrian134" depart="475.00">
        <walk edges="MalPl_2_1 TorPl_1_4 TorPl_2_2"/>
    </person>
    <person id="pedestrian135" depart="484.00">
        <walk edges="CheMe_2_1 TorPl_1_3 TorPl_2_2"/>
    </person>
    <person id="pedestrian136" depart="485.00">
        <walk edges="GorSq_1_1 BynPl_1_3 BynPl_1_2 BynPl_1_1 TorPl_1_4 GowSt_2_1"/>
    </person>
    <person id="pedestrian137" depart="492.00">
        <walk edges="MalPl_2_1 TorPl_1_4 TorPl_1_3 TorPl_1_2 HunSt_2_2"/>
    </person>
    <person id="pedestrian138" depart="503.00">
        <walk edges="TorPl_2_3 TorPl_2_2 GowSt_1_3"/>
    </person>
    <person id="pedestrian139" depart="503.00">
        <walk edges="GorSq_2_2 BynPl_2_1 BynPl_2_2 BynPl_1_1 TorPl_1_4 TorPl_1_3 CheMe_1_1"/>
    </person>
    <person id="pedestrian140" depart="517.00">
        <walk edges="BynPl_2_1 BynPl_1_3"/>
    </person>
    <person id="pedestrian141" depart="522.00">
        <walk edges="BynPl_1_1 TorPl_1_4 GowSt_2_1"/>
    </person>
    <person id="pedestrian142" depart="523.00">
        <walk edges="GorSq_1_1 BynPl_1_3 BynPl_1_2 BynPl_1_1 TorPl_1_4 GowSt_1_3 GowSt_1_2 GowSt_1_1"/>
    </person>
    <person id="pedestrian143" depart="525.00">
        <walk edges="BynPl_1_2 BynPl_1_1 TorPl_1_4 TorPl_1_3 TorPl_1_2 HunSt_1_1"/>
    </person>
    <person id="pedestrian144" depart="531.00">
        <walk edges="TorPl_2_2 GowSt_1_3 GowSt_1_2 GowSt_1_1"/>
    </person>
    <person id="pedestrian145" depart="534.00">
        <walk edges="GowSt_1_4 TorPl_2_2 TorPl_2_3 HunSt_2_1"/>
    </person>
    <person id="pedestrian146" depart="539.00">
        <walk edges="MalSt_2_1 BynPl_2_3 BynPl_2_2 BynPl_2_1"/>
    </person>
    <person id="pedestrian147" depart="552.00">
        <walk edges="MaiQu_2_1 GowSt_1_2 GowSt_1_3 GowSt_1_4"/>
    </person>
    <person id="pedestrian148" depart="553.00">
        <walk edges="TorPl_2_1 GowSt_2_1"/>
    </person>
    <person id="pedestrian149" depart="554.00">
        <walk edges="BynPl_2_3 TorPl_1_4 GowSt_2_2 UniSt_2_1"/>
    </person>
    <person id="pedestrian150" depart="560.00">
        <walk edges="MalPl_1_1 BynPl_1_1 BynPl_1_2 BynPl_1_3"/>
    </person>
    <person id="pedestrian151" depart="561.00">
        <walk edges="MaiQu_1_1 GowSt_1_2 GowSt_1_3 TorPl_2_1 MalSt_2_1"/>
    </person>
    <person id="pedestrian152" depart="565.00">
        <walk edges="TorPl_1_1 TorPl_1_2 TorPl_1_3 TorPl_1_4 BynPl_1_1 BynPl_1_2 BynPl_1_3 GorSq_1_1"/>
    </person>
    <person id="pedestrian153" depart="566.00">
        <walk edges="GowSt_2_1 TorPl_2_1 BynPl_2_3"/>
    </person>
    <person id="pedestrian154" depart="568.00">
        <walk edges="UniSt_1_1 GowSt_1_3 TorPl_1_4 BynPl_1_1 BynPl_2_2"/>
    </person>
    <person id="pedestrian155" depart="568.00">
        <walk edges="MaiQu_1_1 GowSt_1_2 GowSt_1_3 TorPl_2_2 RidGa_2_1"/>
    </person>
    <person id="pedestrian156" depart="569.00">
        <walk edges="TorPl_2_2 TorPl_1_3 CheMe_2_1"/>
    </person>
    <person id="pedestrian157" depart="570.00">
        <walk edges="TorPl_1_4 GowSt_1_3 GowSt_2_3"/>
    </person>
    <person id="pedestrian158" depart="574.00">
        <walk edges="GowSt_2_3 GowSt_1_2 GowSt_1_1"/>
    </person>
    <person id="pedestrian159" depart="575.00">
        <walk edges="GowSt_1_1 GowSt_1_2 GowSt_1_3 TorPl_2_1 MalSt_2_1"/>
    </person>
    <person id="pedestrian160" depart="575.00">
        <walk edges="GowSt_1_1 GowSt_1_2 GowSt_1_3 TorPl_1_4 MalPl_1_1"/>
    </person>
    <person id="pedestrian161" depart="576.00">
        <walk edges="TorPl_2_1 TorPl_2_2 TorPl_2_3 TorPl_1_1"/>
    </person>
    <person id="pedestrian162" depart="593.00">
        <walk edges="HunSt_2_2 TorPl_1_2 TorPl_1_3 GowSt_1_3 GowSt_1_2 MaiQu_2_1"/>
    </person>
    <person id="pedestrian163" depart="594.00">
        <walk edges="TorPl_1_1 TorPl_1_2 TorPl_1_3 TorPl_1_4 MalPl_1_1"/>
    </person>
    <person id="pedestrian164" depart="594.00">
        <walk edges="GowSt_2_1 TorPl_1_3 TorPl_1_2"/>
    </person>
    <person id="pedestrian165" depart="595.00">
        <walk edges="BynPl_1_3 BynPl_1_2 BynPl_1_1 TorPl_1_4 GowSt_2_1"/>
    </person>
    <person id="pedestrian166" depart="596.00">
        <walk edges="TorPl_2_1 TorPl_2_2 RidGa_1_1"/>
    </person>
    <person id="pedestrian167" depart="597.00">
        <walk edges="TorPl_1_2 TorPl_1_3 TorPl_1_4 BynPl_1_1 BynPl_2_2 BynPl_2_1 GorSq_2_2"/>
    </person>
    <person id="pedestrian168" depart="597.00">
        <walk edges="MalPl_1_1 TorPl_2_1"/>
    </person>
    <person id="pedestrian169" depart="606.00">
        <walk edges="GowSt_2_3 GowSt_2_2 TorPl_1_3 TorPl_1_2"/>
    </person>
    <person id="pedestrian170" depart="609.00">
        <walk edges="MalPl_2_1 BynPl_2_3"/>
    </person>
    <person id="pedestrian171" depart="613.00">
        <walk edges="TorPl_1_1 TorPl_2_3"/>
    </person>
    <person id="pedestrian172" depart="614.00">
        <walk edges="GowSt_2_3 GowSt_1_3 TorPl_2_1"/>
    </person>
    <person id="pedestrian173" depart="615.00">
        <walk edges="TorPl_1_3 CheMe_1_1"/>
    </person>
    <person id="pedestrian174" depart="620.00">
        <walk edges="MalPl_2_1 TorPl_1_4 GowSt_2_1"/>
    </person>
    <person id="pedestrian175" depart="621.00">
        <walk edges="CheMe_1_1 TorPl_1_3 GowSt_1_3 GowSt_1_2 MaiQu_2_1"/>
    </person>
    <person id="pedestrian176" depart="621.00">
        <walk edges="BynPl_2_3 TorPl_2_1 TorPl_2_2 RidGa_1_1"/>
    </person>
    <person id="pedestrian177" depart="622.00">
        <walk edges="CheMe_1_1 TorPl_1_3"/>
    </person>
    <person id="pedestrian178" depart="622.00">
        <walk edges="GowSt_1_1 GowSt_1_2 GowSt_1_3 TorPl_1_4 MalPl_2_1"/>
    </person>
    <person id="pedestrian179" depart="627.00">
        <walk edges="CheMe_2_1 TorPl_1_2 HunSt_2_2"/>
    </person>
    <person id="pedestrian180" depart="637.00">
        <walk edges="BynPl_2_2 BynPl_1_1 MalPl_2_1"/>
    </person>
    <person id="pedestrian181" depart="640.00">
        <walk edges="GorSq_1_2 BynPl_1_3 BynPl_1_2 BynPl_1_1 TorPl_1_4 TorPl_1_3 TorPl_1_2 TorPl_2_4"/>
    </person>
    <person id="pedestrian182" depart="645.00">
        <walk edges="GorSq_2_2 BynPl_2_1 BynPl_2_2 BynPl_2_3 TorPl_2_1 TorPl_2_2 TorPl_2_3 HunSt_1_2"/>
    </person>
    <person id="pedestrian183" depart="646.00">
        <walk edges="BynPl_2_3 MalSt_2_1"/>
    </person>
    <person id="pedestrian184" depart="646.00">
        <walk edges="CheMe_1_1 TorPl_1_3 TorPl_1_4 BynPl_1_1 BynPl_1_2 BynPl_1_3 GorSq_1_2 GorSq_1_3"/>
    </person>
    <person id="pedestrian185" depart="646.00">
        <walk edges="BynPl_2_1 BynPl_2_2 BynPl_1_1 MalPl_2_1"/>
    </person>
    <person id="pedestrian186" depart="650.00">
        <walk edges="BynPl_2_3 TorPl_2_1 TorPl_2_2 RidGa_2_1"/>
    </person>
    <person id="pedestrian187" depart="650.00">
        <walk edges="BynPl_1_1 BynPl_1_2 BynPl_1_3 GorSq_1_1"/>
    </person>
    <person id="pedestrian188" depart="653.00">
        <walk edges="GorSq_1_3 GorSq_1_2 BynPl_1_3 BynPl_1_2 BynPl_1_1 TorPl_1_4 TorPl_1_3 CheMe_1_1"/>
    </person>
    <person id="pedestrian189" depart="655.00">
        <walk edges="GowSt_1_4 TorPl_1_4 BynPl_1_1 BynPl_1_2 BynPl_1_3 GorSq_1_1"/>
    </person>
    <person id="pedestrian190" depart="655.00">
        <walk edges="MaiQu_1_1 GowSt_1_2 GowSt_1_3 TorPl_1_4"/>
    </person>
    <person id="pedestrian191" depart="657.00">
        <walk edges="MalSt_2_1 TorPl_2_1 TorPl_2_2 TorPl_2_3 HunSt_1_1"/>
    </person>
    <person id="pedestrian192" depart="657.00">
        <walk edges="BynPl_2_1 BynPl_2_2 BynPl_1_1 TorPl_1_4 TorPl_1_3 CheMe_2_1"/>
    </person>
    <person id="pedestrian193" depart="657.00">
        <walk edges="GorSq_2_2 BynPl_2_1 BynPl_2_2 BynPl_1_1 TorPl_1_4 TorPl_1_3 TorPl_1_2 HunSt_2_2"/>
    </person>
    <person id="pedestrian194" depart="658.00">
        <walk edges="BynPl_1_2 BynPl_1_1 TorPl_1_4 TorPl_1_3 TorPl_1_2 HunSt_2_2"/>
    </person>
    <person id="pedestrian195" depart="658.00">
        <walk edges="RidGa_2_1 TorPl_2_2 GowSt_2_2"/>
    </person>
    <person id="pedestrian196" depart="662.00">
        <walk edges="HunSt_2_2 TorPl_1_2 TorPl_1_3 GowSt_1_3 GowSt_1_2 MaiQu_2_1"/>
    </person>
    <person id="pedestrian197" depart="675.00">
        <walk edges="TorPl_2_3 TorPl_2_2 GowSt_2_1"/>
    </person>
    <person id="pedestrian198" depart="679.00">
        <walk edges="MalSt_2_1 TorPl_2_1"/>
    </person>
    <person id="pedestrian199" depart="682.00">
        <walk edges="MalSt_1_1 TorPl_1_4 GowSt_1_3"/>
    </person>
    <person id="pedestrian200" depart="685.00">
        <walk edges="BynPl_1_3 BynPl_1_2"/>
    </person>
    <person id="pedestrian201" depart="687.00">
        <walk edges="UniSt_1_1 GowSt_1_3 TorPl_1_4"/>
    </person>
    <person id="pedestrian202" depart="691.00">
        <walk edges="GowSt_2_2 TorPl_1_3 CheMe_1_1"/>
    </person>
    <person id="pedestrian203" depart="697.00">
        <walk edges="CheMe_2_1 TorPl_1_2 HunSt_2_2"/>
    </person>
    <person id="pedestrian204" depart="698.00">
        <walk edges="GowSt_1_2 GowSt_1_1"/>
    </person>
    <person id="pedestrian205" depart="708.00">
        <walk edges="GorSq_1_1 BynPl_1_3 BynPl_1_2 BynPl_1_1 MalPl_2_1"/>
    </person>
    <person id="pedestrian206" depart="709.00">
        <walk edges="MalSt_1_1 TorPl_1_4 GowSt_1_3 GowSt_1_2 GowSt_1_1"/>
    </person>
    <person id="pedestrian207" depart="717.00">
        <walk edges="GorSq_1_3 GorSq_1_2 BynPl_1_3 BynPl_1_2 BynPl_1_1 TorPl_1_4 TorPl_1_3 TorPl_1_2 HunSt_2_2"/>
    </person>
    <person id="pedestrian208" depart="720.00">
        <walk edges="CheMe_2_1 TorPl_1_2 TorPl_2_3"/>
    </person>
    <person id="pedestrian209" depart="725.00">
        <walk edges="BynPl_2_3 TorPl_2_1 TorPl_2_2 RidGa_1_1"/>
    </person>
    <person id="pedestrian210" depart="732.00">
        <walk edges="TorPl_2_3 TorPl_2_2 GowSt_1_3 GowSt_1_2"/>
    </person>
    <person id="pedestrian211" depart="732.00">
        <walk edges="TorPl_2_2 TorPl_2_1"/>
    </person>
    <person id="pedestrian212" depart="736.00">
        <walk edges="GorSq_2_2 BynPl_2_1 BynPl_2_2 BynPl_2_3 TorPl_2_1 TorPl_2_2 RidGa_1_1"/>
    </person>
    <person id="pedestrian213" depart="742.00">
        <walk edges="HunSt_1_1 TorPl_1_2 TorPl_1_3 TorPl_1_4 BynPl_1_1 BynPl_2_2"/>
    </person>
    <person id="pedestrian214" depart="744.00">
        <walk edges="MalSt_2_1 TorPl_2_1 GowSt_2_2"/>
    </person>
    <person id="pedestrian215" depart="749.00">
        <walk edges="BynPl_1_1 TorPl_1_4 GowSt_1_3 GowSt_2_3"/>
    </person>
    <person id="pedestrian216" depart="750.00">
        <walk edges="GowSt_2_2 GowSt_2_3"/>
    </person>
    <person id="pedestrian217" depart="759.00">
        <walk edges="CheMe_1_1 TorPl_1_3 TorPl_1_4 BynPl_1_1 BynPl_1_2 BynPl_1_3 GorSq_1_2 GorSq_1_3"/>
    </person>
    <person id="pedestrian218" depart="766.00">
        <walk edges="GowSt_2_2 TorPl_1_3 TorPl_1_2"/>
    </person>
    <person id="pedestrian219" depart="769.00">
        <walk edges="BynPl_1_2 BynPl_1_3 GorSq_1_2"/>
    </person>
    <person id="pedestrian220" depart="773.00">