<?xml version="1.0" encoding="UTF-8"?>

<!-- generated on 2026-02-02 17:13:58.334441 by Eclipse SUMO randomTrips.py UNKNOWN
<configuration>
    <net-file value="../networks/extended/main.net.xml"/>
    <output-trip-file value="../routes/extended/train/6121/pedestrian.trips.xml"/>
    <route-file value="../routes/extended/train/6121/pedestrian.rou.xml"/>
    <pedestrians value="True"/>
    <prefix value="pedestrian"/>
    <seed value="6121"/>
    <insertion-density value="200.0"/>
    <binomial value="100"/>
</configuration>
-->

<!-- generated on 2026-02-02T17:13:58.316360+00:00 by Eclipse SUMO duarouter 1.25.0
<duarouterConfiguration xmlns:xsi="http://www.w3.org/2001/XMLSchema-instance" xsi:noNamespaceSchemaLocation="http://sumo.dlr.de/xsd/duarouterConfiguration.xsd">

    <input>
        <net-file value="../networks/extended/main.net.xml"/>
        <route-files value="../routes/extended/train/6121/pedestrian.trips.xml"/>
    </input>

    <output>
        <output-file value="../routes/extended/train/6121/pedestrian.rou.xml"/>
        <alternatives-output value="NUL"/>
    </output>

    <time>
        <begin value="0"/>
        <end value="3600.0"/>
    </time>

    <report>
        <no-warnings value="true"/>
        <ignore-errors value="true"/>
        <no-step-log value="true"/>
    </report>

</duarouterConfiguration>
-->

<routes xmlns:xsi="http://www.w3.org/2001/XMLSchema-instance" xsi:noNamespaceSchemaLocation="http://sumo.dlr.de/xsd/routes_file.xsd">
    <person id="pedestrian0" depart="0.00">
        <walk edges="GowSt_1_2 GowSt_1_3 TorPl_1_3 TorPl_1_2 HunSt_1_1"/>
    </person>
    <person id="pedestrian1" depart="1.00">
        <walk edges="HunSt_2_1 TorPl_2_3 TorPl_2_2 TorPl_2_1 BynPl_2_3 BynPl_2_2 BynPl_2_1 GorSq_2_2"/>
    </person>
    <person id="pedestrian2" depart="1.00">
        <walk edges="GowSt_1_1 GowSt_1_2 GowSt_1_3 TorPl_2_1 MalSt_2_1"/>
    </person>
    <person id="pedestrian3" depart="2.00">
        <walk edges="GorSq_1_3 GorSq_1_2 BynPl_1_3"/>
    </person>
    <person id="pedestrian4" depart="4.00">
        <walk edges="GorSq_2_2 BynPl_2_1 BynPl_2_2 BynPl_1_1 TorPl_1_4 TorPl_1_3 TorPl_1_2 HunSt_2_2"/>
    </person>
    <person id="pedestrian5" depart="4.00">
        <walk edges="MaiQu_1_1 GowSt_1_2 GowSt_1_3 TorPl_1_3 CheMe_2_1"/>
    </person>
    <person id="pedestrian6" depart="7.00">
        <walk edges="CheMe_2_1 TorPl_1_3 GowSt_2_2"/>
    </person>
    <person id="pedestrian7" depart="8.00">
        <walk edges="HunSt_1_1 TorPl_1_2 TorPl_1_3 TorPl_1_4 BynPl_1_1 BynPl_2_2 BynPl_2_1"/>
    </person>
    <person id="pedestrian8" depart="13.00">
        <walk edges="RidGa_1_1 TorPl_2_2 TorPl_1_4 BynPl_1_1 BynPl_1_2 BynPl_1_3"/>
    </person>
    <person id="pedestrian9" depart="16.00">
        <walk edges="BynPl_2_3 BynPl_1_1"/>
    </person>
    <person id="pedestrian10" depart="17.00">
        <walk edges="BynPl_2_2"/>
    </person>
    <person id="pedestrian11" depart="17.00">
        <walk edges="GowSt_1_1 GowSt_1_2 GowSt_1_3 TorPl_2_2 RidGa_2_1"/>
    </person>
    <person id="pedestrian12" depart="17.00">
        <walk edges="TorPl_1_3 TorPl_1_4 MalSt_1_1"/>
    </person>
    <person id="pedestrian13" depart="19.00">
        <walk edges="TorPl_2_3 TorPl_2_2 TorPl_1_4 BynPl_1_1 BynPl_1_2 BynPl_1_3 GorSq_1_1"/>
    </person>
    <person id="pedestrian14" depart="21.00">
        <walk edges="GowSt_2_3 GowSt_1_3 TorPl_1_4 BynPl_1_1 BynPl_1_2"/>
    </person>
    <person id="pedestrian15" depart="23.00">
        <walk edges="BynPl_2_3 TorPl_2_1 TorPl_2_2 TorPl_2_3 HunSt_2_1"/>
    </person>
    <person id="pedestrian16" depart="24.00">
        <walk edges="BynPl_1_3 BynPl_1_2 BynPl_1_1 TorPl_1_4 GowSt_1_4"/>
    </person>
    <person id="pedestrian17" depart="24.00">
        <walk edges="TorPl_2_3 TorPl_2_2 TorPl_2_1 BynPl_2_3 BynPl_2_2 BynPl_2_1"/>
    </person>
    <person id="pedestrian18" depart="26.00">
        <walk edges="GorSq_1_2 BynPl_1_3 BynPl_2_2 BynPl_2_3 TorPl_2_1"/>
    </person>
    <person id="pedestrian19" depart="40.00">
        <walk edges="GorSq_2_3 BynPl_1_3 BynPl_2_1 GorSq_2_2"/>
    </person>
    <person id="pedestrian20" depart="45.00">
        <walk edges="GowSt_2_2 TorPl_2_2 RidGa_2_1"/>
    </person>
    <person id="pedestrian21" depart="46.00">
        <walk edges="GowSt_1_2 GowSt_1_3 TorPl_2_1"/>
    </person>
    <person id="pedestrian22" depart="50.00">
        <walk edges="UniSt_2_1 GowSt_2_2 TorPl_1_4 BynPl_1_1 BynPl_1_2 BynPl_1_3 GorSq_2_3"/>
    </person>
    <person id="pedestrian23" depart="51.00">
        <walk edges="MalSt_2_1 TorPl_2_1 GowSt_2_1"/>
    </person>
    <person id="pedestrian24" depart="54.00">
        <walk edges="MaiQu_1_1 GowSt_1_2 GowSt_1_3 TorPl_1_4 BynPl_1_1 BynPl_1_2 BynPl_1_3 GorSq_2_3"/>
    </person>
    <person id="pedestrian25" depart="55.00">
        <walk edges="UniSt_2_1 GowSt_2_2 TorPl_1_4 MalPl_2_1"/>
    </person>
    <person id="pedestrian26" depart="59.00">
        <walk edges="GorSq_2_1 GorSq_2_2 BynPl_2_1 BynPl_2_2 BynPl_1_1 TorPl_1_4 GowSt_1_3 GowSt_2_3"/>
    </person>
    <person id="pedestrian27" depart="61.00">
        <walk edges="HunSt_2_2 TorPl_1_2 TorPl_1_3 TorPl_1_4 BynPl_1_1 BynPl_2_2 BynPl_2_1 GorSq_2_2"/>
    </person>
    <person id="pedestrian28" depart="62.00">
        <walk edges="TorPl_2_4 TorPl_1_2 TorPl_1_3 GowSt_1_3 GowSt_1_2 MaiQu_2_1"/>
    </person>
    <person id="pedestrian29" depart="68.00">
        <walk edges="GorSq_2_1 GorSq_2_2 BynPl_2_1 BynPl_2_2 BynPl_2_3 TorPl_2_1 TorPl_2_2 TorPl_2_3 HunSt_1_2"/>
    </person>
    <person id="pedestrian30" depart="69.00">
        <walk edges="MalSt_1_1 TorPl_1_4 GowSt_1_3 GowSt_1_2"/>
    </person>
    <person id="pedestrian31" depart="70.00">
        <walk edges="HunSt_2_2 TorPl_1_2 TorPl_1_3 TorPl_1_4 BynPl_1_1 BynPl_2_2 BynPl_2_1 GorSq_2_2 GorSq_2_1"/>
    </person>
    <person id="pedestrian32" depart="72.00">
        <walk edges="GowSt_1_4 TorPl_2_2 TorPl_2_3 HunSt_2_1"/>
    </person>
    <person id="pedestrian33" depart="78.00">
        <walk edges="TorPl_2_3 HunSt_1_1"/>
    </person>
    <person id="pedestrian34" depart="80.00">
        <walk edges="MaiQu_1_1 MaiQu_2_1"/>
    </person>
    <person id="pedestrian35" depart="81.00">
        <walk edges="GorSq_1_3 GorSq_1_2 GorSq_1_1"/>
    </person>
    <person id="pedestrian36" depart="88.00">
        <walk edges="GorSq_1_3 GorSq_1_2 BynPl_1_3 BynPl_2_2 BynPl_2_3 TorPl_2_1"/>
    </person>
    <person id="pedestrian37" depart="91.00">
        <walk edges="HunSt_1_1 TorPl_1_2 TorPl_1_3 GowSt_1_3"/>
    </person>
    <person id="pedestrian38" depart="92.00">
        <walk edges="GowSt_1_2 GowSt_1_3 TorPl_2_2 RidGa_1_1"/>
    </person>
    <person id="pedestrian39" depart="92.00">
        <walk edges="HunSt_2_1 TorPl_1_2 CheMe_1_1"/>
    </person>
    <person id="pedestrian40" depart="93.00">
        <walk edges="MaiQu_1_1 GowSt_1_2 GowSt_1_3 TorPl_1_4 MalPl_1_1"/>
    </person>
    <person id="pedestrian41" depart="107.00">
        <walk edges="MalPl_1_1 BynPl_1_1 BynPl_1_2"/>
    </person>
    <person id="pedestrian42" depart="112.00">
        <walk edges="BynPl_1_3 BynPl_1_2 BynPl_1_1 TorPl_1_4 TorPl_1_3 TorPl_1_2 HunSt_2_1"/>
    </person>
    <person id="pedestrian43" depart="116.00">
        <walk edges="HunSt_1_1 HunSt_2_1"/>
    </person>
    <person id="pedestrian44" depart="117.00">
        <walk edges="GowSt_1_3 TorPl_2_2 TorPl_2_3"/>
    </person>
    <person id="pedestrian45" depart="119.00">
        <walk edges="RidGa_1_1 TorPl_2_3 TorPl_2_4"/>
    </person>
    <person id="pedestrian46" depart="122.00">
        <walk edges="GowSt_1_4 TorPl_1_4 BynPl_1_1 BynPl_1_2 BynPl_1_3 GorSq_2_3"/>
    </person>
    <person id="pedestrian47" depart="130.00">
        <walk edges="RidGa_2_1 TorPl_2_3 TorPl_1_2"/>
    </person>
    <person id="pedestrian48" depart="133.00">
        <walk edges="MaiQu_2_1 GowSt_1_2 GowSt_1_3 TorPl_2_2 TorPl_2_3 HunSt_1_2"/>
    </person>
    <person id="pedestrian49" depart="133.00">
        <walk edges="BynPl_1_1 TorPl_1_4 GowSt_2_2 UniSt_2_1"/>
    </person>
    <person id="pedestrian50" depart="136.00">
        <walk edges="GowSt_1_1 GowSt_1_2 GowSt_1_3 TorPl_1_4 BynPl_1_1 BynPl_1_2"/>
    </person>
    <person id="pedestrian51" depart="139.00">
        <walk edges="BynPl_1_1 TorPl_1_4 TorPl_1_3 CheMe_1_1"/>
    </person>
    <person id="pedestrian52" depart="141.00">
        <walk edges="MalPl_1_1 BynPl_1_1"/>
    </person>
    <person id="pedestrian53" depart="141.00">
        <walk edges="BynPl_2_2 BynPl_1_1 TorPl_1_4 GowSt_1_3 GowSt_1_2 GowSt_1_1"/>
    </person>
    <person id="pedestrian54" depart="143.00">
        <walk edges="HunSt_2_2 TorPl_1_2 TorPl_1_3 TorPl_1_4 BynPl_1_1 BynPl_1_2 BynPl_1_3"/>
    </person>
    <person id="pedestrian55" depart="144.00">
        <walk edges="MaiQu_2_1 GowSt_1_2 GowSt_1_3 TorPl_1_4 BynPl_1_1 BynPl_2_2"/>
    </person>
    <person id="pedestrian56" depart="146.00">
        <walk edges="HunSt_2_1 TorPl_2_3 TorPl_2_2 TorPl_2_1"/>
    </person>
    <person id="pedestrian57" depart="150.00">
        <walk edges="MaiQu_2_1 GowSt_1_2 GowSt_1_3 TorPl_1_4 MalSt_1_1"/>
    </person>
    <person id="pedestrian58" depart="152.00">
        <walk edges="TorPl_2_3 TorPl_2_2 TorPl_1_4 BynPl_1_1 BynPl_1_2"/>
    </person>
    <person id="pedestrian59" depart="152.00">
        <walk edges="HunSt_1_1 TorPl_1_2 TorPl_1_3 TorPl_1_4 BynPl_1_1 BynPl_2_2 BynPl_2_1 GorSq_2_2 GorSq_2_1"/>
    </person>
    <person id="pedestrian60" depart="155.00">
        <walk edges="MalPl_2_1 TorPl_1_4 GowSt_1_3"/>
    </person>
    <person id="pedestrian61" depart="161.00">
        <walk edges="GowSt_2_2 TorPl_1_3 CheMe_1_1"/>
    </person>
    <person id="pedestrian62" depart="164.00">
        <walk edges="TorPl_1_2 TorPl_2_3 TorPl_2_2"/>
    </person>
    <person id="pedestrian63" depart="171.00">
        <walk edges="GorSq_1_1 BynPl_1_3 BynPl_1_2 BynPl_1_1 TorPl_1_4 TorPl_1_3 TorPl_1_2 HunSt_2_1"/>
    </person>
    <person id="pedestrian64" depart="171.00">
        <walk edges="MalSt_2_1 BynPl_2_3 BynPl_2_2 BynPl_1_3 GorSq_1_2"/>
    </person>
    <person id="pedestrian65" depart="172.00">
        <walk edges="GowSt_1_2 GowSt_1_3 TorPl_1_4 MalPl_2_1"/>
    </person>
    <person id="pedestrian66" depart="173.00">
        <walk edges="GorSq_1_1 BynPl_1_3 BynPl_2_2 BynPl_2_3 MalSt_2_1"/>
    </person>
    <person id="pedestrian67" depart="175.00">
        <walk edges="UniSt_1_1 GowSt_1_3 GowSt_1_4"/>
    </person>
    <person id="pedestrian68" depart="176.00">
        <walk edges="HunSt_2_1 TorPl_1_2 TorPl_1_3 TorPl_1_4 BynPl_1_1 BynPl_1_2 BynPl_1_3 GorSq_2_3"/>
    </person>
    <person id="pedestrian69" depart="176.00">
        <walk edges="GorSq_1_2 BynPl_1_3 BynPl_1_2 BynPl_1_1 TorPl_1_4 GowSt_1_3 GowSt_1_2 MaiQu_2_1"/>
    </person>
    <person id="pedestrian70" depart="177.00">
        <walk edges="BynPl_1_1 TorPl_1_4 TorPl_1_3 TorPl_1_2 HunSt_1_1"/>
    </person>
    <person id="pedestrian71" depart="180.00">
        <walk edges="BynPl_1_3 BynPl_1_2 BynPl_1_1 TorPl_1_4"/>
    </person>
    <person id="pedestrian72" depart="187.00">
        <walk edges="GowSt_2_1 TorPl_1_4 BynPl_1_1"/>
    </person>
    <person id="pedestrian73" depart="189.00">
        <walk edges="TorPl_1_3 TorPl_1_4 MalSt_1_1"/>
    </person>
    <person id="pedestrian74" depart="190.00">
        <walk edges="HunSt_1_1 TorPl_2_3 TorPl_2_2"/>
    </person>
    <person id="pedestrian75" depart="195.00">
        <walk edges="MalSt_2_1 TorPl_2_1 TorPl_2_2 TorPl_2_3 HunSt_1_2"/>
    </person>
    <person id="pedestrian76" depart="197.00">
        <walk edges="RidGa_2_1 TorPl_2_2"/>
    </person>
    <person id="pedestrian77" depart="205.00">
        <walk edges="BynPl_1_3 BynPl_1_2 BynPl_1_1 TorPl_1_4 TorPl_1_3 TorPl_1_2 HunSt_1_1"/>
    </person>
    <person id="pedestrian78" depart="214.00">
        <walk edges="GorSq_2_2 BynPl_2_1 BynPl_2_2 BynPl_2_3 MalSt_2_1"/>
    </person>
    <person id="pedestrian79" depart="214.00">
        <walk edges="UniSt_2_1 GowSt_2_2 TorPl_1_3 TorPl_1_2 HunSt_2_1"/>
    </person>
    <person id="pedestrian80" depart="215.00">
        <walk edges="CheMe_1_1 TorPl_1_3 GowSt_2_2 UniSt_2_1"/>
    </person>
    <person id="pedestrian81" depart="223.00">
        <walk edges="GorSq_1_1 BynPl_1_3 BynPl_1_2 BynPl_1_1 TorPl_1_4 GowSt_1_3 GowSt_1_2"/>
    </person>
    <person id="pedestrian82" depart="224.00">
        <walk edges="GorSq_1_3 GorSq_1_2 BynPl_1_3 BynPl_1_2 BynPl_1_1 TorPl_1_4 TorPl_2_2"/>
    </person>
    <person id="pedestrian83" depart="226.00">
        <walk edges="TorPl_1_2 TorPl_1_3 TorPl_1_4 BynPl_1_1 BynPl_1_2 BynPl_1_3 GorSq_1_2 GorSq_1_3"/>
    </person>
    <person id="pedestrian84" depart="227.00">
        <walk edges="BynPl_2_3 BynPl_2_2"/>
    </person>
    <person id="pedestrian85" depart="228.00">
        <walk edges="TorPl_1_2 TorPl_1_3 GowSt_1_3 GowSt_1_2"/>
    </person>
    <person id="pedestrian86" depart="228.00">
        <walk edges="GorSq_1_1 BynPl_1_3 BynPl_1_2 BynPl_1_1 TorPl_1_4 TorPl_1_3 CheMe_2_1"/>
    </person>
    <person id="pedestrian87" depart="230.00">
        <walk edges="BynPl_1_1 TorPl_1_4 GowSt_1_3 GowSt_1_2 MaiQu_1_1"/>
    </person>
    <person id="pedestrian88" depart="235.00">
        <walk edges="TorPl_2_1 BynPl_2_3 BynPl_2_2 BynPl_1_3 GorSq_1_2 GorSq_1_3"/>
    </person>
    <person id="pedestrian89" depart="236.00">
        <walk edges="GorSq_1_3 GorSq_1_2 BynPl_1_3 BynPl_1_2 BynPl_1_1 TorPl_1_4 TorPl_1_3 TorPl_1_2 HunSt_1_1"/>
    </person>
    <person id="pedestrian90" depart="236.00">
        <walk edges="RidGa_2_1 TorPl_2_3 TorPl_1_1"/>
    </person>
    <person id="pedestrian91" depart="238.00">
        <walk edges="HunSt_2_1 HunSt_1_1"/>
    </person>
    <person id="pedestrian92" depart="239.00">
        <walk edges="GowSt_1_2 GowSt_1_3 TorPl_2_2 TorPl_2_3"/>
    </person>
    <person id="pedestrian93" depart="240.00">
        <walk edges="BynPl_1_2 BynPl_1_1 TorPl_1_4 TorPl_2_2 TorPl_2_3"/>
    </person>
    <person id="pedestrian94" depart="241.00">
        <walk edges="GorSq_2_3 BynPl_1_3 BynPl_1_2 BynPl_1_1 TorPl_1_4 TorPl_1_3 TorPl_1_2 TorPl_1_1"/>
    </person>
    <person id="pedestrian95" depart="243.00">
        <walk edges="TorPl_1_2 TorPl_1_3 GowSt_1_3 GowSt_1_2 GowSt_1_1"/>
    </person>
    <person id="pedestrian96" depart="244.00">
        <walk edges="GowSt_2_3 GowSt_1_2"/>
    </person>
    <person id="pedestrian97" depart="246.00">
        <walk edges="TorPl_1_4 TorPl_2_1 MalSt_2_1"/>
    </person>
    <person id="pedestrian98" depart="247.00">
        <walk edges="RidGa_2_1 TorPl_2_2 TorPl_1_4 BynPl_1_1 BynPl_1_2 BynPl_1_3"/>
    </person>
    <person id="pedestrian99" depart="250.00">
        <walk edges="GorSq_1_2 BynPl_1_3 BynPl_2_2"/>
    </person>
    <person id="pedestrian100" depart="255.00">
        <walk edges="TorPl_1_2 HunSt_1_2"/>
    </person>
    <person id="pedestrian101" depart="258.00">
        <walk edges="BynPl_2_1 BynPl_2_2 BynPl_1_1 TorPl_1_4 TorPl_1_3 CheMe_2_1"/>
    </person>
    <person id="pedestrian102" depart="260.00">
        <walk edges="TorPl_2_4 TorPl_1_2 TorPl_1_3 GowSt_2_2 UniSt_1_1"/>
    </person>
    <person id="pedestrian103" depart="261.00">
        <walk edges="CheMe_1_1"/>
    </person>
    <person id="pedestrian104" depart="263.00">
        <walk edges="GowSt_1_3 TorPl_1_4 BynPl_1_1"/>
    </person>
    <person id="pedestrian105" depart="263.00">
        <walk edges="GowSt_2_3 GowSt_1_3 TorPl_1_4 BynPl_1_1 BynPl_1_2 BynPl_1_3 GorSq_1_2 GorSq_1_3"/>
    </person>
    <person id="pedestrian106" depart="265.00">
        <walk edges="HunSt_2_2 TorPl_1_2 TorPl_1_3 GowSt_1_3 GowSt_1_2 MaiQu_2_1"/>
    </person>
    <person id="pedestrian107" depart="273.00">
        <walk edges="GorSq_1_1 BynPl_1_3 BynPl_1_2 BynPl_1_1"/>
    </person>
    <person id="pedestrian108" depart="275.00">
        <walk edges="TorPl_1_3 GowSt_1_3 GowSt_1_2 GowSt_1_1"/>
    </person>
    <person id="pedestrian109" depart="282.00">
        <walk edges="GorSq_1_2 BynPl_1_3 BynPl_1_2 BynPl_1_1 TorPl_1_4 GowSt_1_3 GowSt_1_2 GowSt_1_1"/>
    </person>
    <person id="pedestrian110" depart="284.00">
        <walk edges="TorPl_2_1 GowSt_1_3 GowSt_2_3"/>
    </person>
    <person id="pedestrian111" depart="285.00">
        <walk edges="BynPl_1_2 BynPl_1_1 TorPl_1_4 GowSt_1_3 UniSt_1_1"/>
    </person>
    <person id="pedestrian112" depart="290.00">
        <walk edges="TorPl_1_4 GowSt_1_3"/>
    </person>
    <person id="pedestrian113" depart="291.00">
        <walk edges="MaiQu_2_1 GowSt_1_2 GowSt_1_3 TorPl_1_4"/>
    </person>
    <person id="pedestrian114" depart="293.00">
        <walk edges="BynPl_2_1 BynPl_2_2"/>
    </person>
    <person id="pedestrian115" depart="300.00">
        <walk edges="GowSt_1_3 TorPl_1_3 TorPl_1_2 TorPl_1_1"/>
    </person>
    <person id="pedestrian116" depart="302.00">
        <walk edges="TorPl_1_4 BynPl_1_1 BynPl_1_2 BynPl_1_3 GorSq_1_2"/>
    </person>
    <person id="pedestrian117" depart="302.00">
        <walk edges="CheMe_1_1"/>
    </person>
    <person id="pedestrian118" depart="304.00">
        <walk edges="BynPl_2_3 MalSt_1_1"/>
    </person>
    <person id="pedestrian119" depart="307.00">
        <walk edges="HunSt_2_2 TorPl_1_2 TorPl_1_3 TorPl_1_4 BynPl_1_1 BynPl_2_2 BynPl_2_1"/>
    </person>
    <person id="pedestrian120" depart="311.00">
        <walk edges="GowSt_1_2 GowSt_1_3 TorPl_1_4 BynPl_1_1 BynPl_2_2 BynPl_2_1 GorSq_2_2"/>
    </person>
    <person id="pedestrian121" depart="314.00">
        <walk edges="MaiQu_1_1"/>
    </person>
    <person id="pedestrian122" depart="315.00">
        <walk edges="MalSt_2_1 BynPl_2_3 BynPl_2_2 BynPl_1_3 GorSq_1_1"/>
    </person>
    <person id="pedestrian123" depart="316.00">
        <walk edges="GorSq_2_1 GorSq_2_2 BynPl_2_1 BynPl_2_2 BynPl_1_1 TorPl_1_4 TorPl_1_3 TorPl_1_2 HunSt_2_2"/>
    </person>
    <person id="pedestrian124" depart="316.00">
        <walk edges="UniSt_1_1 GowSt_2_2 TorPl_1_3 CheMe_1_1"/>
    </person>
    <person id="pedestrian125" depart="318.00">
        <walk edges="GorSq_2_2 BynPl_2_1 BynPl_2_2 BynPl_2_3 TorPl_2_1 TorPl_2_2 TorPl_2_3 HunSt_2_1"/>
    </person>
    <person id="pedestrian126" depart="328.00">
        <walk edges="GorSq_2_3 BynPl_1_3 BynPl_1_2 BynPl_1_1 TorPl_1_4 TorPl_1_3 CheMe_1_1"/>
    </person>
    <person id="pedestrian127" depart="332.00">
        <walk edges="GowSt_1_2 GowSt_1_3 TorPl_1_3 TorPl_1_2 HunSt_2_2"/>
    </person>
    <person id="pedestrian128" depart="344.00">
        <walk edges="GowSt_1_2 GowSt_1_3 TorPl_1_4 MalPl_2_1"/>
    </person>
    <person id="pedestrian129" depart="346.00">
        <walk edges="TorPl_1_2 TorPl_1_3 TorPl_1_4 BynPl_1_1 BynPl_1_2 BynPl_1_3 GorSq_1_2"/>
    </person>
    <person id="pedestrian130" depart="349.00">
        <walk edges="MalPl_2_1 TorPl_1_4 GowSt_1_3 GowSt_1_2 MaiQu_1_1"/>
    </person>
    <person id="pedestrian131" depart="361.00">
        <walk edges="TorPl_1_4 TorPl_2_2 RidGa_1_1"/>
    </person>
    <person id="pedestrian132" depart="363.00">
        <walk edges="GorSq_2_2 BynPl_2_1 BynPl_1_2"/>
    </person>
    <person id="pedestrian133" depart="366.00">
        <walk edges="TorPl_2_2 TorPl_2_1 MalSt_1_1"/>
    </person>
    <person id="pedestrian134" depart="368.00">
        <walk edges="MalSt_2_1 BynPl_2_3 BynPl_2_2 BynPl_2_1"/>
    </person>
    <person id="pedestrian135" depart="370.00">
        <walk edges="TorPl_2_1 BynPl_1_1"/>
    </person>
    <person id="pedestrian136" depart="379.00">
        <walk edges="BynPl_2_1 BynPl_2_2 BynPl_2_3 TorPl_2_1 TorPl_2_2 TorPl_2_3"/>
    </person>
    <person id="pedestrian137" depart="379.00">
        <walk edges="HunSt_2_2 TorPl_1_2 TorPl_1_3 GowSt_2_2 UniSt_1_1"/>
    </person>
    <person id="pedestrian138" depart="388.00">
        <walk edges="MalSt_1_1 TorPl_2_1 TorPl_2_2"/>
    </person>
    <person id="pedestrian139" depart="393.00">
        <walk edges="BynPl_1_2 BynPl_1_1 TorPl_1_4 GowSt_1_3 GowSt_1_2"/>
    </person>
    <person id="pedestrian140" depart="397.00">
        <walk edges="UniSt_1_1 GowSt_1_3 TorPl_1_4"/>
    </person>
    <person id="pedestrian141" depart="404.00">
        <walk edges="HunSt_2_2 TorPl_2_3 RidGa_1_1"/>
    </person>
    <person id="pedestrian142" depart="407.00">
        <walk edges="CheMe_1_1 TorPl_1_2 HunSt_2_1"/>
    </person>
    <person id="pedestrian143" depart="408.00">
        <walk edges="BynPl_1_1 TorPl_1_4 GowSt_2_2"/>
    </person>
    <person id="pedestrian144" depart="410.00">
        <walk edges="UniSt_2_1 GowSt_1_2 MaiQu_1_1"/>
    </person>
    <person id="pedestrian145" depart="411.00">
        <walk edges="TorPl_2_2 TorPl_2_3 HunSt_1_1"/>
    </person>
    <person id="pedestrian146" depart="413.00">
        <walk edges="GowSt_1_3 GowSt_1_2 MaiQu_1_1"/>
    </person>
    <person id="pedestrian147" depart="416.00">
        <walk edges="GorSq_1_2 BynPl_1_3 BynPl_1_2 BynPl_1_1 TorPl_1_4 TorPl_1_3 CheMe_2_1"/>
    </person>
    <person id="pedestrian148" depart="417.00">
        <walk edges="GowSt_1_3 TorPl_1_4 MalPl_2_1"/>
    </person>
    <person id="pedestrian149" depart="419.00">
        <walk edges="UniSt_2_1 GowSt_2_2 TorPl_1_4 BynPl_1_1 BynPl_1_2 BynPl_1_3 GorSq_1_1"/>
    </person>
    <person id="pedestrian150" depart="421.00">
        <walk edges="GorSq_2_3 BynPl_1_3 BynPl_1_2 BynPl_1_1 TorPl_1_4 GowSt_1_4"/>
    </person>
    <person id="pedestrian151" depart="428.00">
        <walk edges="GorSq_2_1 GorSq_2_2 BynPl_2_1 BynPl_2_2 BynPl_1_1 TorPl_1_4 TorPl_1_3 TorPl_1_2"/>
    </person>
    <person id="pedestrian152" depart="432.00">
        <walk edges="TorPl_1_4 MalPl_1_1"/>
    </person>
    <person id="pedestrian153" depart="432.00">
        <walk edges="CheMe_1_1 TorPl_1_3 TorPl_1_4 BynPl_2_3"/>
    </person>
    <person id="pedestrian154" depart="434.00">
        <walk edges="GowSt_2_1 TorPl_2_1 BynPl_2_3 BynPl_2_2"/>
    </person>
    <person id="pedestrian155" depart="434.00">
        <walk edges="GorSq_2_3 BynPl_1_3 BynPl_1_2 BynPl_1_1 TorPl_1_4 TorPl_1_3 CheMe_2_1"/>
    </person>
    <person id="pedestrian156" depart="439.00">
        <walk edges="GowSt_2_1 GowSt_2_2 GowSt_2_3"/>
    </person>
    <person id="pedestrian157" depart="443.00">
        <walk edges="GowSt_1_4 TorPl_1_4 BynPl_1_1 BynPl_1_2 BynPl_1_3 GorSq_1_1"/>
    </person>
    <person id="pedestrian158" depart="444.00">
        <walk edges="TorPl_2_3 TorPl_2_2 TorPl_2_1 BynPl_2_3 BynPl_2_2"/>
    </person>
    <person id="pedestrian159" depart="448.00">
        <walk edges="TorPl_1_1 TorPl_2_3 RidGa_2_1"/>
    </person>
    <person id="pedestrian160" depart="448.00">
        <walk edges="RidGa_1_1 TorPl_2_2 TorPl_1_4 BynPl_1_1 BynPl_1_2 BynPl_1_3 GorSq_1_2 GorSq_1_3"/>
    </person>
    <person id="pedestrian161" depart="450.00">
        <walk edges="UniSt_1_1 GowSt_2_2 TorPl_1_3 TorPl_1_2 TorPl_2_4"/>
    </person>
    <person id="pedestrian162" depart="451.00">
        <walk edges="MalPl_1_1 TorPl_1_4 GowSt_1_3 GowSt_2_3"/>
    </person>
    <person id="pedestrian163" depart="452.00">
        <walk edges="TorPl_2_4 TorPl_2_3 TorPl_2_2 TorPl_2_1 BynPl_2_3 BynPl_2_2 BynPl_2_1 GorSq_2_2"/>
    </person>
    <person id="pedestrian164" depart="460.00">
        <walk edges="TorPl_2_1 GowSt_2_2"/>
    </person>
    <person id="pedestrian165" depart="470.00">
        <walk edges="GorSq_2_2 BynPl_2_1 BynPl_2_2 BynPl_2_3"/>
    </person>
    <person id="pedestrian166" depart="472.00">
        <walk edges="HunSt_2_1 TorPl_2_3"/>
    </person>
    <person id="pedestrian167" depart="476.00">
        <walk edges="BynPl_1_1 TorPl_1_4 GowSt_2_2"/>
    </person>
    <person id="pedestrian168" depart="478.00">
        <walk edges="GowSt_1_4 TorPl_1_4 BynPl_1_1 BynPl_1_2 BynPl_1_3 GorSq_1_2"/>
    </person>
    <person id="pedestrian169" depart="484.00">
        <walk edges="CheMe_1_1 TorPl_1_3 TorPl_1_4 BynPl_1_1 BynPl_1_2 BynPl_1_3 GorSq_2_3"/>
    </person>
    <person id="pedestrian170" depart="485.00">
        <walk edges="TorPl_1_4 GowSt_1_4"/>
    </person>
    <person id="pedestrian171" depart="488.00">
        <walk edges="BynPl_2_3 TorPl_2_1"/>
    </person>
    <person id="pedestrian172" depart="499.00">
        <walk edges="MaiQu_2_1 GowSt_1_2 GowSt_1_3 TorPl_1_4"/>
    </person>
    <person id="pedestrian173" depart="500.00">
        <walk edges="HunSt_2_1 TorPl_2_3 TorPl_2_2 TorPl_2_1 BynPl_2_3"/>
    </person>
    <person id="pedestrian174" depart="501.00">
        <walk edges="HunSt_1_2 TorPl_2_3 TorPl_2_2 TorPl_2_1 MalSt_1_1"/>
    </person>
    <person id="pedestrian175" depart="503.00">
        <walk edges="GowSt_2_3 GowSt_2_2 TorPl_1_3 CheMe_1_1"/>
    </person>
    <person id="pedestrian176" depart="503.00">
        <walk edges="GorSq_1_2 BynPl_1_3 BynPl_2_2"/>
    </person>
    <person id="pedestrian177" depart="509.00">
        <walk edges="GowSt_2_1 TorPl_2_1 BynPl_2_3 BynPl_2_2 BynPl_2_1"/>
    </person>
    <person id="pedestrian178" depart="513.00">
        <walk edges="TorPl_1_2 TorPl_1_3 TorPl_1_4"/>
    </person>
    <person id="pedestrian179" depart="515.00">
        <walk edges="GorSq_2_1 GorSq_2_2 BynPl_2_1 BynPl_2_2 BynPl_1_1 MalPl_1_1"/>
    </person>
    <person id="pedestrian180" depart="516.00">
        <walk edges="GowSt_1_4 TorPl_1_4 BynPl_1_1 BynPl_1_2"/>
    </person>
    <person id="pedestrian181" depart="516.00">
        <walk edges="MalSt_1_1 BynPl_1_1"/>
    </person>
    <person id="pedestrian182" depart="519.00">
        <walk edges="GowSt_1_2 GowSt_1_3 TorPl_1_4 MalPl_1_1"/>
    </person>
    <person id="pedestrian183" depart="525.00">
        <walk edges="BynPl_1_3 GorSq_2_3"/>
    </person>
    <person id="pedestrian184" depart="525.00">
        <walk edges="GowSt_2_1"/>
    </person>
    <person id="pedestrian185" depart="529.00">
        <walk edges="GowSt_1_2 GowSt_1_3 GowSt_1_4"/>
    </person>
    <person id="pedestrian186" depart="539.00">
        <walk edges="GorSq_1_3 GorSq_1_2 BynPl_1_3 BynPl_1_2 BynPl_1_1 TorPl_1_4 TorPl_2_2 TorPl_2_3"/>
    </person>
    <person id="pedestrian187" depart="539.00">
        <walk edges="CheMe_2_1 TorPl_1_3 TorPl_2_1 MalSt_2_1"/>
    </person>
    <person id="pedestrian188" depart="542.00">
        <walk edges="BynPl_2_1 GorSq_2_2 GorSq_1_3"/>
    </person>
    <person id="pedestrian189" depart="543.00">
        <walk edges="HunSt_1_1 TorPl_1_1"/>
    </person>
    <person id="pedestrian190" depart="544.00">
        <walk edges="GowSt_2_1 GowSt_2_2"/>
    </person>
    <person id="pedestrian191" depart="545.00">
        <walk edges="GorSq_2_2 BynPl_2_1 BynPl_2_2 BynPl_1_1 TorPl_1_4 GowSt_1_3 GowSt_1_2 MaiQu_1_1"/>
    </person>
    <person id="pedestrian192" depart="557.00">
        <walk edges="GowSt_1_2 GowSt_1_1"/>
    </person>
    <person id="pedestrian193" depart="562.00">
        <walk edges="MaiQu_1_1 GowSt_1_2 GowSt_1_3 TorPl_2_2 TorPl_2_3"/>
    </person>
    <person id="pedestrian194" depart="563.00">
        <walk edges="GowSt_1_2 GowSt_1_3 TorPl_2_2 TorPl_2_3"/>
    </person>
    <person id="pedestrian195" depart="565.00">
        <walk edges="BynPl_2_2 BynPl_2_3 MalSt_2_1"/>
    </person>
    <person id="pedestrian196" depart="565.00">
        <walk edges="BynPl_1_2 BynPl_1_1 TorPl_1_4 TorPl_1_3 CheMe_2_1"/>
    </person>
    <person id="pedestrian197" depart="565.00">
        <walk edges="GowSt_1_3 TorPl_1_4 BynPl_1_1 BynPl_1_2 BynPl_1_3 GorSq_1_1"/>
    </person>
    <person id="pedestrian198" depart="573.00">
        <walk edges="RidGa_2_1 TorPl_2_3 TorPl_1_2"/>
    </person>
    <person id="pedestrian199" depart="579.00">
        <walk edges="HunSt_2_1 TorPl_2_3 TorPl_2_2 TorPl_2_1 BynPl_2_3 BynPl_2_2 BynPl_2_1 GorSq_2_2"/>
    </person>
    <person id="pedestrian200" depart="582.00">
        <walk edges="MalSt_1_1 BynPl_2_3 BynPl_2_2 BynPl_1_3 GorSq_1_2 GorSq_1_3"/>
    </person>
    <person id="pedestrian201" depart="583.00">
        <walk edges="GowSt_2_3 GowSt_1_2"/>
    </person>
    <person id="pedestrian202" depart="599.00">
        <walk edges="GowSt_1_3 TorPl_2_1"/>
    </person>
    <person id="pedestrian203" depart="602.00">
        <walk edges="RidGa_2_1 TorPl_2_3 TorPl_1_1"/>
    </person>
    <person id="pedestrian204" depart="603.00">
        <walk edges="TorPl_1_3 CheMe_1_1"/>
    </person>
    <person id="pedestrian205" depart="605.00">
        <walk edges="MaiQu_2_1 GowSt_1_2 GowSt_1_3 TorPl_1_3 TorPl_1_2 HunSt_1_1"/>
    </person>
    <person id="pedestrian206" depart="607.00">
        <walk edges="RidGa_1_1 TorPl_2_3 HunSt_2_1"/>
    </person>
    <person id="pedestrian207" depart="610.00">
        <walk edges="BynPl_1_1 TorPl_1_4 TorPl_2_2 RidGa_2_1"/>
    </person>
    <person id="pedestrian208" depart="613.00">
        <walk edges="BynPl_2_3 BynPl_2_2"/>
    </person>
    <person id="pedestrian209" depart="613.00">
        <walk edges="HunSt_1_1 TorPl_1_2 TorPl_1_3 GowSt_2_2"/>
    </person>
    <person id="pedestrian210" depart="617.00">
        <walk edges="BynPl_2_3 TorPl_2_1 TorPl_2_2 RidGa_2_1"/>
    </person>
    <person id="pedestrian211" depart="618.00">
        <walk edges="GowSt_2_2 TorPl_1_4 BynPl_1_1 BynPl_2_2 BynPl_2_1"/>
    </person>
    <person id="pedestrian212" depart="622.00">
        <walk edges="UniSt_1_1 GowSt_2_2 GowSt_2_1"/>
    </person>
    <person id="pedestrian213" depart="630.00">
        <walk edges="GowSt_1_3 TorPl_1_3 TorPl_1_2 HunSt_1_1"/>
    </person>
    <person id="pedestrian214" depart="641.00">
        <walk edges="TorPl_2_1 TorPl_1_3 CheMe_1_1"/>
    </person>
    <person id="pedestrian215" depart="642.00">
        <walk edges="MalPl_2_1 TorPl_1_4 GowSt_2_2"/>
    </person>
    <person id="pedestrian216" depart="645.00">
        <walk edges="TorPl_2_3 TorPl_1_2 CheMe_1_1"/>
    </person>
    <person id="pedestrian217" depart="646.00">
        <walk edges="TorPl_1_2 TorPl_1_3 TorPl_2_1"/>
    </person>
    <person id="pedestrian218" depart="646.00">