<?xml version="1.0" encoding="UTF-8"?>

<!-- generated on 2025-11-03 21:39:09 by Eclipse SUMO netedit Version 1.24.0
<neteditConfiguration xmlns:xsi="http://www.w3.org/2001/XMLSchema-instance" xsi:noNamespaceSchemaLocation="http://sumo.dlr.de/xsd/neteditConfiguration.xsd">

    <input>
        <sumocfg-file value="C:\Users\Abdul\Downloads\sumo\demo\simulation.sumocfg"/>
        <sumo-net-file value="C:\Users\Abdul\Downloads\sumo\demo\networks/demo.net.xml"/>
    </input>

    <output>
        <output-file value="C:\Users\Abdul\Downloads\sumo\demo\networks/demo.net.xml"/>
    </output>

    <processing>
        <geometry.min-radius.fix.railways value="false"/>
        <geometry.avoid-overlap value="false"/>
        <geometry.max-grade.fix value="false"/>
        <offset.disable-normalization value="true"/>
        <lefthand value="1"/>
    </processing>

    <junctions>
        <no-internal-links value="false"/>
        <no-turnarounds value="true"/>
        <junctions.corner-detail value="5"/>
        <junctions.limit-turn-speed value="5.50"/>
        <rectangular-lane-cut value="0"/>
    </junctions>

    <pedestrian>
        <walkingareas value="0"/>
    </pedestrian>

    <netedit>
        <ignore.routeelements value="false"/>
    </netedit>

</neteditConfiguration>
-->

<net version="1.20" junctionCornerDetail="5" lefthand="true" limitTurnSpeed="5.50" avoidOverlap="0" xmlns:xsi="http://www.w3.org/2001/XMLSchema-instance" xsi:noNamespaceSchemaLocation="http://sumo.dlr.de/xsd/net_file.xsd">

    <location netOffset="0.00,0.00" convBoundary="-70.41,-330.85,234.64,12.56" origBoundary="-10000000000.00,-10000000000.00,10000000000.00,10000000000.00" projParameter="!"/>

    <edge id=":CJ_1_0" function="internal">
        <lane id=":CJ_1_0_0" index="0" allow="bicycle" speed="6.31" length="4.79" width="1.00" shape="37.41,-233.35 35.77,-231.53 33.93,-230.67 33.62,-230.69"/>
    </edge>
    <edge id=":CJ_1_1" function="internal">
        <lane id=":CJ_1_1_0" index="0" allow="bicycle" speed="13.89" length="18.33" width="1.00" shape="37.41,-233.35 26.44,-218.66"/>
    </edge>
    <edge id=":CJ_1_2" function="internal">
        <lane id=":CJ_1_2_0" index="0" allow="bicycle" speed="9.13" length="8.39" width="1.00" shape="37.41,-233.35 35.96,-228.89 36.32,-225.20"/>
    </edge>
    <edge id=":CJ_1_3" function="internal">
        <lane id=":CJ_1_3_0" index="0" disallow="pedestrian" speed="8.07" length="4.69" width="5.00" shape="39.49,-231.96 36.82,-228.88 36.28,-228.58"/>
    </edge>
    <edge id=":CJ_1_4" function="internal">
        <lane id=":CJ_1_4_0" index="0" disallow="pedestrian" speed="13.89" length="18.34" width="4.00" shape="39.49,-231.96 28.51,-217.26"/>
    </edge>
    <edge id=":CJ_1_5" function="internal">
        <lane id=":CJ_1_5_0" index="0" disallow="pedestrian" speed="8.22" length="3.71" width="5.00" shape="39.49,-231.96 38.61,-228.71 38.67,-228.37"/>
    </edge>
    <edge id=":CJ_1_20" function="internal">
        <lane id=":CJ_1_20_0" index="0" allow="bicycle" speed="6.31" length="4.26" width="1.00" shape="33.62,-230.69 31.87,-230.77 29.59,-231.83"/>
    </edge>
    <edge id=":CJ_1_21" function="internal">
        <lane id=":CJ_1_21_0" index="0" allow="bicycle" speed="9.13" length="11.43" width="1.00" shape="36.32,-225.20 36.46,-223.79 38.57,-219.03 41.93,-215.59"/>
    </edge>
    <edge id=":CJ_1_22" function="internal">
        <lane id=":CJ_1_22_0" index="0" disallow="pedestrian" speed="8.07" length="9.36" width="5.00" shape="36.28,-228.58 33.95,-227.30 30.86,-227.23 27.56,-228.68"/>
    </edge>
    <edge id=":CJ_1_23" function="internal">
        <lane id=":CJ_1_23_0" index="0" disallow="pedestrian" speed="8.22" length="11.30" width="5.00" shape="38.67,-228.37 39.33,-224.93 41.24,-221.36 43.94,-218.76"/>
    </edge>
    <edge id=":CJ_1_6" function="internal">
        <lane id=":CJ_1_6_0" index="0" allow="bicycle" speed="5.83" length="2.80" width="1.00" shape="45.96,-221.99 44.48,-223.28 44.14,-224.05"/>
    </edge>
    <edge id=":CJ_1_7" function="internal">
        <lane id=":CJ_1_7_0" index="0" allow="bicycle" speed="13.89" length="19.09" width="2.50" shape="45.96,-221.99 29.59,-231.83"/>
    </edge>
    <edge id=":CJ_1_8" function="internal">
        <lane id=":CJ_1_8_0" index="0" allow="bicycle" speed="9.99" length="12.58" width="1.00" shape="45.96,-221.99 40.19,-224.66 35.02,-224.99 34.06,-224.58"/>
    </edge>
    <edge id=":CJ_1_9" function="internal">
        <lane id=":CJ_1_9_0" index="0" allow="bicycle" speed="4.19" length="3.70" width="2.50" shape="45.96,-221.99 43.67,-221.93 42.47,-221.19"/>
    </edge>
    <edge id=":CJ_1_24" function="internal">
        <lane id=":CJ_1_24_0" index="0" allow="bicycle" speed="5.83" length="4.60" width="1.00" shape="44.14,-224.05 43.82,-224.77 43.95,-226.47 44.88,-228.37"/>
    </edge>
    <edge id=":CJ_1_25" function="internal">
        <lane id=":CJ_1_25_0" index="0" allow="bicycle" speed="9.99" length="9.85" width="1.00" shape="34.06,-224.58 30.43,-222.99 26.44,-218.66"/>
    </edge>
    <edge id=":CJ_1_26" function="internal">
        <lane id=":CJ_1_26_0" index="0" allow="bicycle" speed="4.19" length="3.70" width="2.50" shape="42.47,-221.19 42.33,-219.79 43.27,-217.70"/>
    </edge>
    <edge id=":CJ_1_10" function="internal">
        <lane id=":CJ_1_10_0" index="0" allow="bicycle" speed="6.41" length="4.94" width="1.00" shape="33.99,-213.65 35.72,-215.61 37.62,-216.58 37.82,-216.58"/>
    </edge>
    <edge id=":CJ_1_11" function="internal">
        <lane id=":CJ_1_11_0" index="0" allow="bicycle" speed="13.89" length="18.31" width="1.00" shape="33.99,-213.65 44.88,-228.37"/>
    </edge>
    <edge id=":CJ_1_12" function="internal">
        <lane id=":CJ_1_12_0" index="0" allow="bicycle" speed="9.23" length="8.62" width="1.00" shape="33.99,-213.65 35.51,-218.20 35.18,-222.01"/>
    </edge>
    <edge id=":CJ_1_13" function="internal">
        <lane id=":CJ_1_13_0" index="0" disallow="pedestrian" speed="8.16" length="4.85" width="5.00" shape="31.92,-215.05 34.67,-218.26 35.21,-218.57"/>
    </edge>
    <edge id=":CJ_1_14" function="internal">
        <lane id=":CJ_1_14_0" index="0" disallow="pedestrian" speed="13.89" length="18.30" width="4.00" shape="31.92,-215.05 42.80,-229.75"/>
    </edge>
    <edge id=":CJ_1_15" function="internal">
        <lane id=":CJ_1_15_0" index="0" disallow="pedestrian" speed="8.33" length="3.91" width="5.00" shape="31.92,-215.05 32.87,-218.40 32.80,-218.82"/>
    </edge>
    <edge id=":CJ_1_27" function="internal">
        <lane id=":CJ_1_27_0" index="0" allow="bicycle" speed="6.41" length="4.32" width="1.00" shape="37.82,-216.58 39.69,-216.58 41.93,-215.59"/>
    </edge>
    <edge id=":CJ_1_28" function="internal">
        <lane id=":CJ_1_28_0" index="0" allow="bicycle" speed="9.23" length="11.60" width="1.00" shape="35.18,-222.01 35.06,-223.41 32.98,-228.29 29.59,-231.83"/>
    </edge>
    <edge id=":CJ_1_29" function="internal">
        <lane id=":CJ_1_29_0" index="0" disallow="pedestrian" speed="8.16" length="9.37" width="5.00" shape="35.21,-218.57 37.59,-219.95 40.68,-220.12 43.94,-218.76"/>
    </edge>
    <edge id=":CJ_1_30" function="internal">
        <lane id=":CJ_1_30_0" index="0" disallow="pedestrian" speed="8.33" length="11.52" width="5.00" shape="32.80,-218.82 32.19,-222.31 30.29,-225.99 27.56,-228.68"/>
    </edge>
    <edge id=":CJ_1_16" function="internal">
        <lane id=":CJ_1_16_0" index="0" allow="bicycle" speed="6.00" length="3.55" width="1.00" shape="25.48,-225.47 26.99,-224.11 27.58,-222.71"/>
    </edge>
    <edge id=":CJ_1_17" function="internal">
        <lane id=":CJ_1_17_0" index="0" allow="bicycle" speed="13.89" length="19.18" width="2.50" shape="25.48,-225.47 41.93,-215.59"/>
    </edge>
    <edge id=":CJ_1_18" function="internal">
        <lane id=":CJ_1_18_0" index="0" allow="bicycle" speed="9.90" length="12.88" width="1.00" shape="25.48,-225.47 31.28,-222.70 36.44,-222.25 37.62,-222.74"/>
    </edge>
    <edge id=":CJ_1_19" function="internal">
        <lane id=":CJ_1_19_0" index="0" allow="bicycle" speed="4.19" length="3.70" width="2.50" shape="25.48,-225.47 27.77,-225.50 28.99,-226.22"/>
    </edge>
    <edge id=":CJ_1_31" function="internal">
        <lane id=":CJ_1_31_0" index="0" allow="bicycle" speed="6.00" length="4.32" width="1.00" shape="27.58,-222.71 27.65,-222.52 27.47,-220.70 26.44,-218.66"/>
    </edge>
    <edge id=":CJ_1_32" function="internal">
        <lane id=":CJ_1_32_0" index="0" allow="bicycle" speed="9.90" length="9.39" width="1.00" shape="37.62,-222.74 40.97,-224.14 44.88,-228.37"/>
    </edge>
    <edge id=":CJ_1_33" function="internal">
        <lane id=":CJ_1_33_0" index="0" allow="bicycle" speed="4.19" length="3.70" width="2.50" shape="28.99,-226.22 29.15,-227.63 28.24,-229.73"/>
    </edge>
    <edge id=":CJ_1_c0" function="crossing" crossingEdges="GowSt_1_2 GowSt_2_1">
        <lane id=":CJ_1_c0_0" index="0" allow="pedestrian" speed="2.78" length="9.98" width="4.00" shape="44.19,-226.42 35.88,-231.96" outlineShape="45.38,228.03 36.91,233.68 36.15,232.62 35.19,231.96 34.13,231.66 33.12,231.71 34.77,230.30 43.08,224.76 45.34,224.16 45.01,224.54 44.65,225.35 44.57,226.22 44.79,227.13"/>
    </edge>
    <edge id=":CJ_1_c1" function="crossing" crossingEdges="TorPl_1_2 TorPl_2_1">
        <lane id=":CJ_1_c1_0" index="0" allow="pedestrian" speed="2.78" length="10.06" width="4.00" shape="39.57,-215.61 44.93,-224.12" outlineShape="41.26,214.54 46.63,223.05 45.67,223.77 45.01,224.54 44.65,225.35 44.57,226.22 44.71,226.78 43.24,225.19 37.88,216.68 37.13,215.50 37.42,215.60 38.61,215.61 39.89,215.25"/>
    </edge>
    <edge id=":CJ_1_c2" function="crossing" crossingEdges="GowSt_2_2 GowSt_1_1">
        <lane id=":CJ_1_c2_0" index="0" allow="pedestrian" speed="2.78" length="10.06" width="4.00" shape="27.14,-220.60 35.52,-215.03" outlineShape="26.03,218.93 34.41,213.37 35.32,214.48 36.32,215.22 37.42,215.60 38.27,215.60 36.63,216.70 28.25,222.26 26.25,223.10 26.46,222.83 26.82,221.95 26.87,221.00 26.60,220.00"/>
    </edge>
    <edge id=":CJ_1_c3" function="crossing" crossingEdges="TorPl_2_2 TorPl_1_1.66">
        <lane id=":CJ_1_c3_0" index="0" allow="pedestrian" speed="2.78" length="10.07" width="4.00" shape="31.95,-231.79 26.49,-223.34" outlineShape="30.27,232.88 24.81,224.42 26.03,218.94 24.37,220.05 23.72,222.74 24.80,224.42 25.99,218.89 34.27,231.70 34.13,231.66 32.95,231.71 31.67,232.12"/>
    </edge>
    <edge id=":CJ_1_w0" function="walkingarea">
        <lane id=":CJ_1_w0_0" index="0" allow="pedestrian" speed="2.78" length="4.00" width="4.00" shape="30.27,-232.88 31.36,-234.56 35.33,-234.74 36.99,-233.63 36.15,-232.62 35.19,-231.96 34.13,-231.66 32.95,-231.71 31.67,-232.12"/>
    </edge>
    <edge id=":CJ_1_w1" function="walkingarea">
        <lane id=":CJ_1_w1_0" index="0" allow="pedestrian" speed="2.78" length="3.03" width="4.00" shape="45.30,-228.09 46.96,-226.98 47.69,-224.74 46.62,-223.05 45.67,-223.77 45.01,-224.54 44.65,-225.35 44.57,-226.22 44.79,-227.13"/>
    </edge>
    <edge id=":CJ_1_w2" function="walkingarea">
        <lane id=":CJ_1_w2_0" index="0" allow="pedestrian" speed="2.78" length="4.11" width="4.00" shape="41.26,-214.54 40.19,-212.85 36.06,-212.26 34.40,-213.37 35.32,-214.48 36.32,-215.22 37.42,-215.60 38.61,-215.61 39.89,-215.25"/>
    </edge>
    <edge id=":CJ_1_w3" function="walkingarea">
        <lane id=":CJ_1_w3_0" index="0" allow="pedestrian" speed="2.78" length="3.28" width="4.00" shape="26.03,-218.94 24.37,-220.05 23.72,-222.74 24.80,-224.42 25.79,-223.66 26.46,-222.83 26.82,-221.95 26.87,-221.00 26.60,-220.00"/>
    </edge>
    <edge id=":CJ_2_0" function="internal">
        <lane id=":CJ_2_0_0" index="0" allow="bicycle" speed="6.34" length="8.04" width="2.50" shape="98.96,-193.94 97.54,-192.44 95.90,-191.77 94.03,-191.92 91.93,-192.91"/>
    </edge>
    <edge id=":CJ_2_1" function="internal">
        <lane id=":CJ_2_1_0" index="0" disallow="pedestrian" speed="7.59" length="12.72" width="5.00" shape="99.58,-193.52 97.70,-190.01 97.17,-186.99 98.00,-184.45 100.18,-182.40"/>
    </edge>
    <edge id=":CJ_2_2" function="internal">
        <lane id=":CJ_2_2_0" index="0" allow="bicycle" speed="5.82" length="7.43" width="1.00" shape="102.23,-185.64 100.89,-186.87 100.34,-188.36 100.60,-190.10 101.66,-192.11"/>
    </edge>
    <edge id=":CJ_2_3" function="internal">
        <lane id=":CJ_2_3_0" index="0" allow="bicycle" speed="13.89" length="12.60" width="2.50" shape="102.23,-185.64 91.93,-192.91"/>
    </edge>
    <edge id=":CJ_2_4" function="internal">
        <lane id=":CJ_2_4_0" index="0" allow="bicycle" speed="4.20" length="7.43" width="2.50" shape="102.23,-185.64 99.93,-185.59 98.72,-184.85 98.58,-183.44 99.51,-181.34"/>
    </edge>
    <edge id=":CJ_2_5" function="internal">
        <lane id=":CJ_2_5_0" index="0" allow="bicycle" speed="13.89" length="12.61" width="2.50" shape="87.85,-186.46 98.18,-179.23"/>
    </edge>
    <edge id=":CJ_2_6" function="internal">
        <lane id=":CJ_2_6_0" index="0" allow="bicycle" speed="8.69" length="7.88" width="1.00" shape="87.85,-186.46 91.32,-185.16 94.77,-185.67 95.34,-186.05"/>
    </edge>
    <edge id=":CJ_2_7" function="internal">
        <lane id=":CJ_2_7_0" index="0" disallow="pedestrian" speed="13.89" length="12.60" width="5.00" shape="89.86,-189.63 100.18,-182.40"/>
    </edge>
    <edge id=":CJ_2_8" function="internal">
        <lane id=":CJ_2_8_0" index="0" allow="bicycle" speed="8.69" length="8.83" width="1.00" shape="95.34,-186.05 98.22,-187.98 101.66,-192.11"/>
    </edge>
    <edge id=":CJ_2_c0" function="crossing" crossingEdges="MalSt_1_1 MalSt_2_1">
        <lane id=":CJ_2_c0_0" index="0" allow="pedestrian" speed="2.78" length="5.01" width="4.00" shape="100.94,-190.17 96.80,-193.00" outlineShape="102.07,191.82 97.93,194.65 97.24,193.84 96.48,193.31 95.63,193.06 94.70,193.09 94.25,193.22 95.67,191.34 99.81,188.52 101.81,187.66 101.46,188.12 101.18,188.94 101.19,189.83 101.48,190.79"/>
    </edge>
    <edge id=":CJ_2_c1" function="crossing" crossingEdges="BynPl_1_1 BynPl_2_3">
        <lane id=":CJ_2_c1_0" index="0" allow="pedestrian" speed="2.78" length="10.09" width="4.00" shape="95.82,-179.24 101.21,-187.77" outlineShape="97.51,178.17 102.90,186.70 102.95,186.79 102.89,186.70 102.03,187.37 101.46,188.12 101.18,188.94 101.19,189.83 101.33,190.30 99.51,188.84 94.13,180.31 97.51,178.17 96.44,176.48 89.65,179.00 87.97,180.09 86.26,181.20 86.11,183.72 87.18,185.40 94.13,180.31"/>
    </edge>
    <edge id=":CJ_2_w0" function="walkingarea">
        <lane id=":CJ_2_w0_0" index="0" allow="pedestrian" speed="2.78" length="3.44" width="4.00" shape="92.60,-193.96 93.67,-195.65 96.28,-195.78 97.93,-194.65 97.24,-193.84 96.48,-193.31 95.63,-193.06 94.70,-193.09 93.69,-193.39"/>
    </edge>
    <edge id=":CJ_2_w1" function="walkingarea">
        <lane id=":CJ_2_w1_0" index="0" allow="pedestrian" speed="2.78" length="3.02" width="4.00" shape="102.07,-191.82 103.72,-190.70 103.96,-188.39 102.89,-186.70 102.03,-187.37 101.46,-188.12 101.18,-188.94 101.19,-189.83 101.48,-190.79"/>
    </edge>
    <edge id=":CJ_2_w2" function="walkingarea">
        <lane id=":CJ_2_w2_0" index="0" allow="pedestrian" speed="2.78" length="7.16" width="4.00" shape="94.13,-180.31 97.51,-178.17 96.44,-176.48 89.65,-179.00 87.97,-180.09 86.26,-181.20 86.11,-183.72 87.18,-185.40"/>
    </edge>
    <edge id=":CJ_3_0" function="internal">
        <lane id=":CJ_3_0_0" index="0" allow="bicycle" speed="13.89" length="4.50" width="2.50" shape="142.51,-157.32 141.96,-158.53 141.53,-159.35 140.98,-160.08 140.06,-161.04"/>
    </edge>
    <edge id=":CJ_3_1" function="internal">
        <lane id=":CJ_3_1_0" index="0" allow="bicycle" speed="9.86" length="2.29" width="2.50" shape="134.69,-155.55 135.02,-155.22 135.24,-154.98 135.41,-154.72 135.61,-154.30"/>
        <lane id=":CJ_3_1_1" index="1" disallow="pedestrian" speed="13.66" length="2.29" width="5.00" shape="137.31,-158.23 137.94,-157.59 138.35,-157.13 138.67,-156.61 139.05,-155.80"/>
    </edge>
    <edge id=":CJ_3_c0" function="crossing" crossingEdges="BynPl_1_2 BynPl_2_2">
        <lane id=":CJ_3_c0_0" index="0" allow="pedestrian" speed="2.78" length="9.99" width="4.00" shape="133.67,-155.63 142.80,-159.66" outlineShape="134.38,153.76 143.70,157.87 143.49,162.15 143.78,161.83 144.22,161.22 144.58,160.57 144.97,159.75 145.48,158.64 143.66,157.80 142.00,161.49 132.86,157.46 133.39,154.20 133.83,154.63 133.96,154.51 134.09,154.39 134.19,154.28 134.28,154.16 134.37,154.01"/>
    </edge>
    <edge id=":CJ_3_w0" function="walkingarea">
        <lane id=":CJ_3_w0_0" index="0" allow="pedestrian" speed="2.78" length="3.60" width="4.00" shape="140.93,-161.93 142.33,-163.36 143.19,-162.50 143.78,-161.83 144.22,-161.22 144.58,-160.57 144.97,-159.75 145.48,-158.64 143.66,-157.80 143.21,-158.80 142.87,-159.51 142.56,-160.08 142.19,-160.60 141.67,-161.19"/>
    </edge>
    <edge id=":CJ_3_w1" function="walkingarea">
        <lane id=":CJ_3_w1_0" index="0" allow="pedestrian" speed="2.78" length="1.57" width="4.00" shape="134.47,-153.80 132.64,-152.99 132.39,-153.25 133.83,-154.63 133.96,-154.51 134.09,-154.39 134.19,-154.28 134.28,-154.16 134.37,-154.01"/>
    </edge>
    <edge id=":CJ_4_0" function="internal">
        <lane id=":CJ_4_0_0" index="0" allow="bicycle" speed="13.89" length="3.92" width="2.50" shape="158.20,-118.76 155.18,-121.27"/>
    </edge>
    <edge id=":CJ_4_1" function="internal">
        <lane id=":CJ_4_1_0" index="0" allow="bicycle" speed="13.89" length="4.19" width="2.50" shape="150.43,-115.12 153.84,-112.53"/>
        <lane id=":CJ_4_1_1" index="1" disallow="pedestrian" speed="13.89" length="4.19" width="5.00" shape="152.72,-118.09 155.99,-115.60"/>
    </edge>
    <edge id=":CJ_4_c0" function="crossing" crossingEdges="BynPl_1_3 BynPl_2_1">
        <lane id=":CJ_4_c0_0" index="0" allow="pedestrian" speed="2.78" length="10.15" width="4.00" shape="151.48,-112.65 157.32,-120.95" outlineShape="153.12,111.50 158.96,119.80 156.99,123.62 157.17,123.84 160.08,121.41 158.98,119.91 155.69,122.10 149.85,113.80 153.12,111.51 151.97,109.87 148.78,112.29"/>
    </edge>
    <edge id=":CJ_4_w0" function="walkingarea">
        <lane id=":CJ_4_w0_0" index="0" allow="pedestrian" speed="2.78" length="2.75" width="4.00" shape="155.95,-122.26 157.17,-123.84 160.08,-121.41 158.90,-119.80 155.69,-122.10"/>
    </edge>
    <edge id=":CJ_4_w1" function="walkingarea">
        <lane id=":CJ_4_w1_0" index="0" allow="pedestrian" speed="2.78" length="3.05" width="4.00" shape="149.85,-113.80 153.12,-111.51 151.97,-109.87 148.45,-112.53 149.64,-114.14"/>
    </edge>
    <edge id=":CJ_5_0" function="internal">
        <lane id=":CJ_5_0_0" index="0" allow="bicycle" speed="13.89" length="14.59" width="2.50" shape="174.62,-107.95 162.30,-115.77"/>
    </edge>
    <edge id=":CJ_5_1" function="internal">
        <lane id=":CJ_5_1_0" index="0" allow="bicycle" speed="9.03" length="3.05" width="2.50" shape="174.62,-107.95 171.82,-109.19"/>
    </edge>
    <edge id=":CJ_5_2" function="internal">
        <lane id=":CJ_5_2_0" index="0" allow="bicycle" speed="4.21" length="1.13" width="2.50" shape="174.62,-107.95 173.49,-107.96"/>
    </edge>
    <edge id=":CJ_5_10" function="internal">
        <lane id=":CJ_5_10_0" index="0" allow="bicycle" speed="9.03" length="15.46" width="2.50" shape="171.82,-109.19 170.48,-109.78 166.50,-109.59 162.68,-107.38 159.03,-103.15"/>
    </edge>
    <edge id=":CJ_5_11" function="internal">
        <lane id=":CJ_5_11_0" index="0" allow="bicycle" speed="4.21" length="6.34" width="2.50" shape="173.49,-107.96 172.31,-107.96 171.06,-107.26 170.88,-105.84 171.76,-103.71"/>
    </edge>
    <edge id=":CJ_5_3" function="internal">
        <lane id=":CJ_5_3_0" index="0" allow="bicycle" speed="6.24" length="7.91" width="2.50" shape="163.58,-100.09 165.08,-101.76 166.71,-102.57 168.47,-102.53 170.36,-101.63"/>
    </edge>
    <edge id=":CJ_5_4" function="internal">
        <lane id=":CJ_5_4_0" index="0" allow="bicycle" speed="8.79" length="16.66" width="2.50" shape="162.34,-100.94 164.87,-105.57 165.70,-109.59 164.85,-112.99 162.30,-115.77"/>
    </edge>
    <edge id=":CJ_5_5" function="internal">
        <lane id=":CJ_5_5_0" index="0" allow="bicycle" speed="5.96" length="2.91" width="2.50" shape="157.87,-109.70 159.37,-108.29 159.72,-107.52"/>
    </edge>
    <edge id=":CJ_5_6" function="internal">
        <lane id=":CJ_5_6_0" index="0" allow="bicycle" speed="13.89" length="14.87" width="2.50" shape="157.87,-109.70 170.36,-101.63"/>
    </edge>
    <edge id=":CJ_5_7" function="internal">
        <lane id=":CJ_5_7_0" index="0" disallow="pedestrian" speed="7.38" length="1.45" width="4.00" shape="160.08,-112.73 161.06,-111.66"/>
    </edge>
    <edge id=":CJ_5_8" function="internal">
        <lane id=":CJ_5_8_0" index="0" disallow="pedestrian" speed="13.89" length="14.73" width="5.00" shape="160.08,-112.73 172.46,-104.74"/>
    </edge>
    <edge id=":CJ_5_9" function="internal">
        <lane id=":CJ_5_9_0" index="0" allow="bicycle" speed="3.73" length="1.50" width="2.50" shape="160.80,-113.76 161.93,-113.70 162.26,-113.87"/>
    </edge>
    <edge id=":CJ_5_12" function="internal">
        <lane id=":CJ_5_12_0" index="0" allow="bicycle" speed="5.96" length="4.66" width="2.50" shape="159.72,-107.52 160.06,-106.73 159.95,-105.02 159.03,-103.15"/>
    </edge>
    <edge id=":CJ_5_13" function="internal">
        <lane id=":CJ_5_13_0" index="0" disallow="pedestrian" speed="7.38" length="9.77" width="4.00" shape="161.06,-111.66 161.68,-110.97 162.14,-108.72 161.46,-105.97 159.65,-102.73"/>
    </edge>
    <edge id=":CJ_5_14" function="internal">
        <lane id=":CJ_5_14_0" index="0" allow="bicycle" speed="3.73" length="2.16" width="2.50" shape="162.26,-113.87 162.56,-114.01 162.68,-114.71 162.30,-115.77"/>
    </edge>
    <edge id=":CJ_5_c0" function="crossing" crossingEdges="GorSq_2_3 GorSq_1_1">
        <lane id=":CJ_5_c0_0" index="0" allow="pedestrian" speed="2.78" length="7.99" width="4.00" shape="159.12,-105.51 165.74,-101.04" outlineShape="158.00,103.85 164.62,99.38 165.35,100.30 166.13,100.92 166.95,101.27 167.82,101.33 168.42,101.18 166.86,102.70 160.24,107.16 158.04,107.89 158.49,107.27 158.76,106.49 158.77,105.67 158.51,104.78"/>
    </edge>
    <edge id=":CJ_5_w0" function="walkingarea">
        <lane id=":CJ_5_w0_0" index="0" allow="pedestrian" speed="2.78" length="14.50" width="2.00" shape="163.04,-116.78 164.22,-118.40 176.43,-110.65 175.31,-108.99"/>
    </edge>
    <edge id=":CJ_5_w1" function="walkingarea">
        <lane id=":CJ_5_w1_0" index="0" allow="pedestrian" speed="2.78" length="3.20" width="4.00" shape="169.66,-100.60 168.55,-98.94 166.27,-98.26 164.62,-99.39 165.35,-100.30 166.13,-100.92 166.95,-101.27 167.82,-101.33 168.72,-101.10"/>
    </edge>
    <edge id=":CJ_5_w2" function="walkingarea">
        <lane id=":CJ_5_w2_0" index="0" allow="pedestrian" speed="2.78" length="3.09" width="4.00" shape="157.99,-103.85 156.34,-104.98 155.97,-107.07 157.12,-108.71 157.96,-108.00 158.49,-107.27 158.76,-106.49 158.77,-105.67 158.51,-104.78"/>
    </edge>
    <edge id=":CJ_6_0" function="internal">
        <lane id=":CJ_6_0_0" index="0" allow="bicycle" speed="13.89" length="4.26" width="2.50" shape="209.64,-84.18 206.19,-86.68"/>
    </edge>
    <edge id=":CJ_6_1" function="internal">
        <lane id=":CJ_6_1_0" index="0" allow="bicycle" speed="13.89" length="4.29" width="2.50" shape="201.94,-80.37 205.46,-77.90"/>
        <lane id=":CJ_6_1_1" index="1" disallow="pedestrian" speed="13.89" length="4.29" width="5.00" shape="204.04,-83.48 207.54,-81.02"/>
    </edge>
    <edge id=":CJ_6_c0" function="crossing" crossingEdges="GorSq_1_3 GorSq_2_1">
        <lane id=":CJ_6_c0_0" index="0" allow="pedestrian" speed="2.78" length="10.04" width="4.00" shape="203.10,-77.97 208.67,-86.33" outlineShape="204.77,76.86 210.34,85.22 210.39,85.31 210.33,85.22 207.01,87.44 201.44,79.08 204.77,76.86 203.66,75.20 200.13,77.67 201.24,79.33 201.44,79.08"/>
    </edge>
    <edge id=":CJ_6_w0" function="walkingarea">
        <lane id=":CJ_6_w0_0" index="0" allow="pedestrian" speed="2.78" length="3.00" width="4.00" shape="206.89,-87.72 208.01,-89.38 211.44,-86.88 210.33,-85.22 207.01,-87.44"/>
    </edge>
    <edge id=":CJ_6_w1" function="walkingarea">
        <lane id=":CJ_6_w1_0" index="0" allow="pedestrian" speed="2.78" length="3.01" width="4.00" shape="201.44,-79.08 204.77,-76.86 203.66,-75.20 200.13,-77.67 201.24,-79.33"/>
    </edge>
    <edge id=":clusterJ11_J24_J25_J4_#2more_0" function="internal">
        <lane id=":clusterJ11_J24_J25_J4_#2more_0_0" index="0" allow="bicycle" speed="6.14" length="7.77" width="2.50" shape="-2.29,-258.22 -3.74,-256.63 -5.33,-255.85 -7.08,-255.90 -8.99,-256.78"/>
        <lane id=":clusterJ11_J24_J25_J4_#2more_0_1" index="1" disallow="pedestrian" speed="7.23" length="11.17" width="5.00" shape="-2.00,-258.02 -4.38,-255.08 -6.68,-253.37 -8.89,-252.89 -11.03,-253.63"/>
    </edge>
    <edge id=":clusterJ11_J24_J25_J4_#2more_2" function="internal">
        <lane id=":clusterJ11_J24_J25_J4_#2more_2_0" index="0" allow="bicycle" speed="8.02" length="14.55" width="2.50" shape="-1.71,-257.83 -4.51,-253.15 -5.90,-249.42 -5.88,-246.64 -4.45,-244.79"/>
    </edge>
    <edge id=":clusterJ11_J24_J25_J4_#2more_3" function="internal">
        <lane id=":clusterJ11_J24_J25_J4_#2more_3_0" index="0" allow="bicycle" speed="13.89" length="10.32" width="2.50" shape="-0.33,-251.17 -8.99,-256.78"/>
        <lane id=":clusterJ11_J24_J25_J4_#2more_3_1" index="1" disallow="pedestrian" speed="13.89" length="10.32" width="5.00" shape="-2.36,-248.02 -11.03,-253.63"/>
    </edge>
    <edge id=":clusterJ11_J24_J25_J4_#2more_5" function="internal">
        <lane id=":clusterJ11_J24_J25_J4_#2more_5_0" index="0" allow="bicycle" speed="6.21" length="7.97" width="2.50" shape="-11.31,-243.27 -9.82,-244.91 -8.18,-245.71 -6.39,-245.67 -4.45,-244.79"/>
    </edge>
    <edge id=":clusterJ11_J24_J25_J4_#2more_6" function="internal">
        <lane id=":clusterJ11_J24_J25_J4_#2more_6_0" index="0" disallow="pedestrian" speed="7.18" length="11.46" width="5.00" shape="-11.60,-243.47 -9.69,-246.84 -8.95,-249.65 -9.40,-251.92 -11.03,-253.63"/>
    </edge>
    <edge id=":clusterJ11_J24_J25_J4_#2more_7" function="internal">
        <lane id=":clusterJ11_J24_J25_J4_#2more_7_0" index="0" allow="bicycle" speed="13.89" length="10.32" width="2.50" shape="-13.12,-250.38 -4.45,-244.79"/>
    </edge>
    <edge id=":clusterJ11_J24_J25_J4_#2more_w0" function="walkingarea">
        <lane id=":clusterJ11_J24_J25_J4_#2more_w0_0" index="0" allow="pedestrian" speed="2.78" length="3.71" width="2.00" shape="-8.31,-257.83 -7.23,-259.51 -4.98,-260.05 -3.32,-258.93 -4.03,-258.06 -4.79,-257.47 -5.59,-257.15 -6.45,-257.10 -7.36,-257.33"/>
    </edge>
    <edge id=":clusterJ11_J24_J25_J4_#2more_w1" function="walkingarea">
        <lane id=":clusterJ11_J24_J25_J4_#2more_w1_0" index="0" allow="pedestrian" speed="2.78" length="3.53" width="2.00" shape="-0.63,-257.09 1.02,-255.96 1.44,-253.91 0.35,-252.23 -0.52,-252.91 -1.11,-253.64 -1.42,-254.43 -1.46,-255.27 -1.21,-256.17"/>
    </edge>
    <edge id=":clusterJ11_J24_J25_J4_#2more_w2" function="walkingarea">
        <lane id=":clusterJ11_J24_J25_J4_#2more_w2_0" index="0" allow="pedestrian" speed="2.78" length="3.90" width="2.00" shape="-5.13,-243.74 -6.21,-242.06 -8.63,-241.43 -10.28,-242.56 -9.54,-243.46 -8.76,-244.08 -7.92,-244.41 -7.04,-244.47 -6.11,-244.24"/>
    </edge>
    <edge id=":clusterJ11_J24_J25_J4_#2more_w3" function="walkingarea">
        <lane id=":clusterJ11_J24_J25_J4_#2more_w3_0" index="0" allow="pedestrian" speed="2.78" length="3.62" width="2.00" shape="-12.91,-244.36 -14.55,-245.50 -14.89,-247.66 -13.80,-249.34 -12.95,-248.66 -12.38,-247.93 -12.09,-247.13 -12.09,-246.28 -12.36,-245.35"/>
    </edge>
    <edge id=":clusterJ17_J18_J21_J22_#2more_0" function="internal">
        <lane id=":clusterJ17_J18_J21_J22_#2more_0_0" index="0" allow="bicycle" speed="5.64" length="7.10" width="1.00" shape="-34.06,-278.80 -35.46,-277.17 -36.93,-276.29 -38.45,-276.19 -40.03,-276.84"/>
    </edge>
    <edge id=":clusterJ17_J18_J21_J22_#2more_1" function="internal">
        <lane id=":clusterJ17_J18_J21_J22_#2more_1_0" index="0" allow="bicycle" speed="8.27" length="16.26" width="1.00" shape="-34.06,-278.80 -36.75,-274.02 -37.78,-270.02 -37.13,-266.81 -34.80,-264.38"/>
    </edge>
    <edge id=":clusterJ17_J18_J21_J22_#2more_2" function="internal">
        <lane id=":clusterJ17_J18_J21_J22_#2more_2_0" index="0" allow="bicycle" speed="5.95" length="7.74" width="2.50" shape="-30.67,-270.79 -32.27,-272.19 -33.03,-273.75 -32.94,-275.49 -32.00,-277.40"/>
    </edge>
    <edge id=":clusterJ17_J18_J21_J22_#2more_3" function="internal">
        <lane id=":clusterJ17_J18_J21_J22_#2more_3_0" index="0" allow="bicycle" speed="13.89" length="11.15" width="2.50" shape="-30.67,-270.79 -40.03,-276.84"/>
    </edge>
    <edge id=":clusterJ17_J18_J21_J22_#2more_4" function="internal">
        <lane id=":clusterJ17_J18_J21_J22_#2more_4_0" index="0" disallow="pedestrian" speed="7.30" length="1.64" shape="-32.70,-267.64 -33.84,-268.82"/>
    </edge>
    <edge id=":clusterJ17_J18_J21_J22_#2more_5" function="internal">
        <lane id=":clusterJ17_J18_J21_J22_#2more_5_0" index="0" disallow="pedestrian" speed="13.89" length="11.15" width="5.00" shape="-32.70,-267.64 -42.06,-273.69"/>
    </edge>
    <edge id=":clusterJ17_J18_J21_J22_#2more_11" function="internal">