<?xml version="1.0" encoding="UTF-8"?>

<!-- generated on 2025-11-03 23:31:08 by Eclipse SUMO netedit Version 1.24.0
<neteditConfiguration xmlns:xsi="http://www.w3.org/2001/XMLSchema-instance" xsi:noNamespaceSchemaLocation="http://sumo.dlr.de/xsd/neteditConfiguration.xsd">

    <input>
        <sumocfg-file value=".\.\simulation.sumocfg"/>
        <sumo-net-file value=".\.\networks/demo.net.xml"/>
    </input>

    <output>
        <output-file value=".\.\networks/demo.net.xml"/>
    </output>

    <processing>
        <geometry.min-radius.fix.railways value="false"/>
        <geometry.avoid-overlap value="false"/>
        <geometry.max-grade.fix value="false"/>
        <offset.disable-normalization value="true"/>
        <lefthand value="1"/>
    </processing>

    <junctions>
        <no-internal-links value="false"/>
        <no-turnarounds value="true"/>
        <junctions.corner-detail value="5"/>
        <junctions.limit-turn-speed value="5.50"/>
        <rectangular-lane-cut value="0"/>
    </junctions>

    <pedestrian>
        <walkingareas value="0"/>
    </pedestrian>

    <netedit>
        <ignore.routeelements value="false"/>
    </netedit>

</neteditConfiguration>
-->

<net version="1.20" junctionCornerDetail="5" lefthand="true" limitTurnSpeed="5.50" avoidOverlap="0" xmlns:xsi="http://www.w3.org/2001/XMLSchema-instance" xsi:noNamespaceSchemaLocation="http://sumo.dlr.de/xsd/net_file.xsd">

    <location netOffset="0.00,0.00" convBoundary="-70.41,-330.85,234.64,12.56" origBoundary="-10000000000.00,-10000000000.00,10000000000.00,10000000000.00" projParameter="!"/>

    <edge id=":CJ_1_0" function="internal">
        <lane id=":CJ_1_0_0" index="0" allow="bicycle" speed="6.24" length="4.54" width="1.00" shape="37.05,-233.48 35.44,-231.70 33.63,-230.84 33.49,-230.85"/>
    </edge>
    <edge id=":CJ_1_1" function="internal">
        <lane id=":CJ_1_1_0" index="0" allow="bicycle" speed="13.89" length="18.18" width="1.00" shape="37.05,-233.48 26.56,-218.63"/>
    </edge>
    <edge id=":CJ_1_2" function="internal">
        <lane id=":CJ_1_2_0" index="0" allow="bicycle" speed="9.21" length="8.56" width="1.00" shape="37.05,-233.48 35.61,-228.96 36.07,-225.17"/>
    </edge>
    <edge id=":CJ_1_3" function="internal">
        <lane id=":CJ_1_3_0" index="0" disallow="pedestrian" speed="8.02" length="4.39" width="5.00" shape="39.12,-232.09 36.48,-229.04 36.17,-228.87"/>
    </edge>
    <edge id=":CJ_1_4" function="internal">
        <lane id=":CJ_1_4_0" index="0" disallow="pedestrian" speed="13.89" length="18.19" width="4.00" shape="39.12,-232.09 28.63,-217.23"/>
    </edge>
    <edge id=":CJ_1_5" function="internal">
        <lane id=":CJ_1_5_0" index="0" disallow="pedestrian" speed="8.31" length="3.74" width="5.00" shape="39.12,-232.09 38.29,-228.81 38.36,-228.46"/>
    </edge>
    <edge id=":CJ_1_20" function="internal">
        <lane id=":CJ_1_20_0" index="0" allow="bicycle" speed="6.24" length="4.28" width="1.00" shape="33.49,-230.85 31.63,-230.92 29.43,-231.94"/>
    </edge>
    <edge id=":CJ_1_21" function="internal">
        <lane id=":CJ_1_21_0" index="0" allow="bicycle" speed="9.21" length="11.64" width="1.00" shape="36.07,-225.17 36.23,-223.79 38.49,-218.97 41.95,-215.47"/>
    </edge>
    <edge id=":CJ_1_22" function="internal">
        <lane id=":CJ_1_22_0" index="0" disallow="pedestrian" speed="8.02" length="9.43" width="5.00" shape="36.17,-228.87 33.65,-227.47 30.62,-227.39 27.40,-228.79"/>
    </edge>
    <edge id=":CJ_1_23" function="internal">
        <lane id=":CJ_1_23_0" index="0" disallow="pedestrian" speed="8.31" length="11.63" width="5.00" shape="38.36,-228.46 39.12,-224.96 41.17,-221.31 43.97,-218.64"/>
    </edge>
    <edge id=":CJ_1_6" function="internal">
        <lane id=":CJ_1_6_0" index="0" allow="bicycle" speed="5.97" length="3.08" width="1.00" shape="45.96,-221.85 44.31,-223.25 43.90,-224.06"/>
    </edge>
    <edge id=":CJ_1_7" function="internal">
        <lane id=":CJ_1_7_0" index="0" allow="bicycle" speed="13.89" length="19.37" width="2.50" shape="45.96,-221.85 29.43,-231.94"/>
    </edge>
    <edge id=":CJ_1_8" function="internal">
        <lane id=":CJ_1_8_0" index="0" allow="bicycle" speed="9.95" length="12.46" width="1.00" shape="45.96,-221.85 40.22,-224.52 35.07,-224.87 34.19,-224.49"/>
    </edge>
    <edge id=":CJ_1_9" function="internal">
        <lane id=":CJ_1_9_0" index="0" allow="bicycle" speed="4.18" length="3.67" width="2.50" shape="45.96,-221.85 43.70,-221.78 42.50,-221.05"/>
    </edge>
    <edge id=":CJ_1_24" function="internal">
        <lane id=":CJ_1_24_0" index="0" allow="bicycle" speed="5.97" length="4.73" width="1.00" shape="43.90,-224.06 43.51,-224.83 43.57,-226.57 44.48,-228.49"/>
    </edge>
    <edge id=":CJ_1_25" function="internal">
        <lane id=":CJ_1_25_0" index="0" allow="bicycle" speed="9.95" length="9.83" width="1.00" shape="34.19,-224.49 30.52,-222.91 26.56,-218.63"/>
    </edge>
    <edge id=":CJ_1_26" function="internal">
        <lane id=":CJ_1_26_0" index="0" allow="bicycle" speed="4.18" length="3.67" width="2.50" shape="42.50,-221.05 42.37,-219.65 43.30,-217.58"/>
    </edge>
    <edge id=":CJ_1_10" function="internal">
        <lane id=":CJ_1_10_0" index="0" allow="bicycle" speed="6.39" length="4.89" width="1.00" shape="34.06,-213.58 35.78,-215.51 37.67,-216.47 37.85,-216.47"/>
    </edge>
    <edge id=":CJ_1_11" function="internal">
        <lane id=":CJ_1_11_0" index="0" allow="bicycle" speed="13.89" length="18.19" width="1.00" shape="34.06,-213.58 44.48,-228.49"/>
    </edge>
    <edge id=":CJ_1_12" function="internal">
        <lane id=":CJ_1_12_0" index="0" allow="bicycle" speed="9.28" length="8.85" width="1.00" shape="34.06,-213.58 35.57,-218.17 35.18,-222.17"/>
    </edge>
    <edge id=":CJ_1_13" function="internal">
        <lane id=":CJ_1_13_0" index="0" disallow="pedestrian" speed="8.14" length="4.52" width="5.00" shape="31.99,-214.97 34.73,-218.17 35.00,-218.32"/>
    </edge>
    <edge id=":CJ_1_14" function="internal">
        <lane id=":CJ_1_14_0" index="0" disallow="pedestrian" speed="13.89" length="18.19" width="4.00" shape="31.99,-214.97 42.41,-229.88"/>
    </edge>
    <edge id=":CJ_1_15" function="internal">
        <lane id=":CJ_1_15_0" index="0" disallow="pedestrian" speed="8.39" length="4.00" width="5.00" shape="31.99,-214.97 32.92,-218.36 32.83,-218.84"/>
    </edge>
    <edge id=":CJ_1_27" function="internal">
        <lane id=":CJ_1_27_0" index="0" allow="bicycle" speed="6.39" length="4.31" width="1.00" shape="37.85,-216.47 39.72,-216.46 41.95,-215.47"/>
    </edge>
    <edge id=":CJ_1_28" function="internal">
        <lane id=":CJ_1_28_0" index="0" allow="bicycle" speed="9.28" length="11.63" width="1.00" shape="35.18,-222.17 35.06,-223.44 32.89,-228.36 29.43,-231.94"/>
    </edge>
    <edge id=":CJ_1_29" function="internal">
        <lane id=":CJ_1_29_0" index="0" disallow="pedestrian" speed="8.14" length="9.65" width="5.00" shape="35.00,-218.32 37.64,-219.84 40.72,-220.00 43.97,-218.64"/>
    </edge>
    <edge id=":CJ_1_30" function="internal">
        <lane id=":CJ_1_30_0" index="0" disallow="pedestrian" speed="8.39" length="11.68" width="5.00" shape="32.83,-218.84 32.18,-222.31 30.19,-226.05 27.40,-228.79"/>
    </edge>
    <edge id=":CJ_1_16" function="internal">
        <lane id=":CJ_1_16_0" index="0" allow="bicycle" speed="6.09" length="3.76" width="1.00" shape="25.35,-225.61 26.97,-224.18 27.63,-222.73"/>
    </edge>
    <edge id=":CJ_1_17" function="internal">
        <lane id=":CJ_1_17_0" index="0" allow="bicycle" speed="13.89" length="19.46" width="2.50" shape="25.35,-225.61 41.95,-215.47"/>
    </edge>
    <edge id=":CJ_1_18" function="internal">
        <lane id=":CJ_1_18_0" index="0" allow="bicycle" speed="9.85" length="12.59" width="1.00" shape="25.35,-225.61 31.05,-222.89 36.14,-222.47 37.21,-222.91"/>
    </edge>
    <edge id=":CJ_1_19" function="internal">
        <lane id=":CJ_1_19_0" index="0" allow="bicycle" speed="4.18" length="3.67" width="2.50" shape="25.35,-225.61 27.61,-225.65 28.82,-226.36"/>
    </edge>
    <edge id=":CJ_1_31" function="internal">
        <lane id=":CJ_1_31_0" index="0" allow="bicycle" speed="6.09" length="4.37" width="1.00" shape="27.63,-222.73 27.71,-222.54 27.58,-220.69 26.56,-218.63"/>
    </edge>
    <edge id=":CJ_1_32" function="internal">
        <lane id=":CJ_1_32_0" index="0" allow="bicycle" speed="9.85" length="9.36" width="1.00" shape="37.21,-222.91 40.62,-224.33 44.48,-228.49"/>
    </edge>
    <edge id=":CJ_1_33" function="internal">
        <lane id=":CJ_1_33_0" index="0" allow="bicycle" speed="4.18" length="3.67" width="2.50" shape="28.82,-226.36 28.98,-227.76 28.08,-229.84"/>
    </edge>
    <edge id=":CJ_1_c0" function="crossing" crossingEdges="GowSt_1_2 GowSt_2_1">
        <lane id=":CJ_1_c0_0" index="0" allow="pedestrian" speed="2.78" length="9.96" width="4.00" shape="43.78,-226.55 35.52,-232.10" outlineShape="44.98,228.15 36.55,233.82 35.80,232.77 34.87,232.13 33.84,231.83 32.75,231.87 34.40,230.44 42.67,224.89 44.96,224.35 44.79,224.54 44.34,225.41 44.21,226.31 44.40,227.24"/>
    </edge>
    <edge id=":CJ_1_c1" function="crossing" crossingEdges="TorPl_1_4 TorPl_2_1">
        <lane id=":CJ_1_c1_0" index="0" allow="pedestrian" speed="2.78" length="10.02" width="4.00" shape="39.60,-215.49 44.94,-223.97" outlineShape="41.29,214.43 46.64,222.90 45.55,223.70 44.79,224.54 44.34,225.41 44.21,226.31 44.28,226.67 37.16,215.39 37.46,215.49 38.64,215.49 39.92,215.14"/>
    </edge>
    <edge id=":CJ_1_c2" function="crossing" crossingEdges="GowSt_2_2 GowSt_1_1">
        <lane id=":CJ_1_c2_0" index="0" allow="pedestrian" speed="2.78" length="10.04" width="4.00" shape="27.26,-220.57 35.59,-214.96" outlineShape="26.15,218.91 34.48,213.30 34.56,213.24 34.48,213.30 35.38,214.39 36.37,215.12 37.46,215.49 38.37,215.49 36.71,216.62 28.38,222.23 26.15,218.91 24.49,220.02 23.58,222.88 24.67,224.57 25.73,223.75 26.35,223.03"/>
    </edge>
    <edge id=":CJ_1_c3" function="crossing" crossingEdges="TorPl_2_2 TorPl_1_3">
        <lane id=":CJ_1_c3_0" index="0" allow="pedestrian" speed="2.78" length="10.03" width="4.00" shape="31.79,-231.90 26.35,-223.48" outlineShape="30.11,232.99 24.67,224.57 25.73,223.75 26.47,222.88 26.88,221.96 26.96,221.00 26.87,220.59 34.19,231.93 33.84,231.83 32.70,231.87 31.46,232.26"/>
    </edge>
    <edge id=":CJ_1_w0" function="walkingarea">
        <lane id=":CJ_1_w0_0" index="0" allow="pedestrian" speed="2.78" length="3.87" width="4.00" shape="30.11,-232.99 31.20,-234.67 34.97,-234.88 36.63,-233.76 35.80,-232.77 34.87,-232.13 33.84,-231.83 32.70,-231.87 31.46,-232.26"/>
    </edge>
    <edge id=":CJ_1_w1" function="walkingarea">
        <lane id=":CJ_1_w1_0" index="0" allow="pedestrian" speed="2.78" length="3.27" width="4.00" shape="44.90,-228.21 46.56,-227.09 47.70,-224.59 46.63,-222.90 45.55,-223.70 44.79,-224.54 44.34,-225.41 44.21,-226.31 44.40,-227.24"/>
    </edge>
    <edge id=":CJ_1_w2" function="walkingarea">
        <lane id=":CJ_1_w2_0" index="0" allow="pedestrian" speed="2.78" length="4.07" width="4.00" shape="41.28,-214.42 40.21,-212.73 36.13,-212.18 34.48,-213.30 35.38,-214.39 36.37,-215.12 37.46,-215.49 38.64,-215.49 39.92,-215.14"/>
    </edge>
    <edge id=":CJ_1_w3" function="walkingarea">
        <lane id=":CJ_1_w3_0" index="0" allow="pedestrian" speed="2.78" length="3.42" width="4.00" shape="26.15,-218.91 24.49,-220.02 23.58,-222.88 24.67,-224.57 25.73,-223.75 26.47,-222.88 26.88,-221.96 26.96,-221.00 26.72,-219.98"/>
    </edge>
    <edge id=":CJ_2_0" function="internal">
        <lane id=":CJ_2_0_0" index="0" allow="bicycle" speed="6.25" length="7.78" width="2.50" shape="98.86,-193.80 97.46,-192.28 95.86,-191.58 94.07,-191.68 92.09,-192.60"/>
    </edge>
    <edge id=":CJ_2_1" function="internal">
        <lane id=":CJ_2_1_0" index="0" disallow="pedestrian" speed="7.54" length="12.57" width="5.00" shape="99.48,-193.38 97.64,-189.93 97.14,-186.95 97.99,-184.44 100.18,-182.40"/>
    </edge>
    <edge id=":CJ_2_2" function="internal">
        <lane id=":CJ_2_2_0" index="0" allow="bicycle" speed="5.77" length="7.28" width="1.00" shape="102.23,-185.64 100.88,-186.86 100.32,-188.32 100.54,-190.02 101.56,-191.96"/>
    </edge>
    <edge id=":CJ_2_3" function="internal">
        <lane id=":CJ_2_3_0" index="0" allow="bicycle" speed="13.89" length="12.29" width="2.50" shape="102.23,-185.64 92.09,-192.60"/>
    </edge>
    <edge id=":CJ_2_4" function="internal">
        <lane id=":CJ_2_4_0" index="0" allow="bicycle" speed="4.20" length="7.43" width="2.50" shape="102.23,-185.64 99.93,-185.59 98.72,-184.85 98.58,-183.44 99.51,-181.34"/>
    </edge>
    <edge id=":CJ_2_5" function="internal">
        <lane id=":CJ_2_5_0" index="0" allow="bicycle" speed="13.89" length="12.30" width="2.50" shape="88.01,-186.16 98.18,-179.23"/>
    </edge>
    <edge id=":CJ_2_6" function="internal">
        <lane id=":CJ_2_6_0" index="0" allow="bicycle" speed="8.63" length="7.77" width="1.00" shape="88.01,-186.16 91.36,-184.92 94.74,-185.48 95.38,-185.92"/>
    </edge>
    <edge id=":CJ_2_7" function="internal">
        <lane id=":CJ_2_7_0" index="0" disallow="pedestrian" speed="13.89" length="12.29" width="5.00" shape="90.02,-189.32 100.18,-182.40"/>
    </edge>
    <edge id=":CJ_2_8" function="internal">
        <lane id=":CJ_2_8_0" index="0" allow="bicycle" speed="8.63" length="8.71" width="1.00" shape="95.38,-185.92 98.14,-187.83 101.56,-191.96"/>
    </edge>
    <edge id=":CJ_2_c0" function="crossing" crossingEdges="MalSt_1_1 MalSt_2_1">
        <lane id=":CJ_2_c0_0" index="0" allow="pedestrian" speed="2.78" length="5.01" width="4.00" shape="100.84,-190.03 96.70,-192.85" outlineShape="101.97,191.68 97.83,194.50 97.15,193.69 96.41,193.15 95.60,192.87 94.72,192.86 94.12,193.03 95.57,191.20 99.71,188.37 101.83,187.62 101.45,188.10 101.15,188.90 101.14,189.76 101.41,190.69"/>
    </edge>
    <edge id=":CJ_2_c1" function="crossing" crossingEdges="BynPl_1_1 BynPl_2_3">
        <lane id=":CJ_2_c1_0" index="0" allow="pedestrian" speed="2.78" length="10.09" width="4.00" shape="95.82,-179.24 101.21,-187.77" outlineShape="97.51,178.17 102.90,186.70 102.95,186.79 102.89,186.70 102.03,187.37 101.45,188.10 101.15,188.90 101.14,189.76 101.30,190.32 99.51,188.84 94.13,180.31 97.51,178.17 96.44,176.48 89.95,178.80 88.29,179.92 86.60,181.05 86.27,183.41 87.34,185.10 94.13,180.31"/>
    </edge>
    <edge id=":CJ_2_w0" function="walkingarea">
        <lane id=":CJ_2_w0_0" index="0" allow="pedestrian" speed="2.78" length="3.25" width="4.00" shape="92.76,-193.65 93.83,-195.34 96.18,-195.63 97.83,-194.50 97.15,-193.69 96.41,-193.15 95.60,-192.87 94.72,-192.86 93.77,-193.12"/>
    </edge>
    <edge id=":CJ_2_w1" function="walkingarea">
        <lane id=":CJ_2_w1_0" index="0" allow="pedestrian" speed="2.78" length="2.94" width="4.00" shape="101.97,-191.68 103.62,-190.55 103.96,-188.39 102.89,-186.70 102.03,-187.37 101.45,-188.10 101.15,-188.90 101.14,-189.76 101.41,-190.69"/>
    </edge>
    <edge id=":CJ_2_w2" function="walkingarea">
        <lane id=":CJ_2_w2_0" index="0" allow="pedestrian" speed="2.78" length="6.95" width="4.00" shape="94.13,-180.31 97.51,-178.17 96.44,-176.48 89.95,-178.80 88.29,-179.92 86.60,-181.05 86.27,-183.41 87.34,-185.10"/>
    </edge>
    <edge id=":CJ_3_0" function="internal">
        <lane id=":CJ_3_0_0" index="0" allow="bicycle" speed="13.89" length="4.50" width="2.50" shape="142.51,-157.32 141.96,-158.53 141.53,-159.35 140.98,-160.08 140.06,-161.04"/>
    </edge>
    <edge id=":CJ_3_1" function="internal">
        <lane id=":CJ_3_1_0" index="0" allow="bicycle" speed="9.86" length="2.29" width="2.50" shape="134.69,-155.55 135.02,-155.22 135.24,-154.98 135.41,-154.72 135.61,-154.30"/>
        <lane id=":CJ_3_1_1" index="1" disallow="pedestrian" speed="13.66" length="2.29" width="5.00" shape="137.31,-158.23 137.94,-157.59 138.35,-157.13 138.67,-156.61 139.05,-155.80"/>
    </edge>
    <edge id=":CJ_3_c0" function="crossing" crossingEdges="BynPl_1_2 BynPl_2_2">
        <lane id=":CJ_3_c0_0" index="0" allow="pedestrian" speed="2.78" length="9.99" width="4.00" shape="133.67,-155.63 142.80,-159.66" outlineShape="134.38,153.76 143.70,157.87 143.49,162.15 143.78,161.83 144.22,161.22 144.58,160.57 144.97,159.75 145.48,158.64 143.66,157.80 142.00,161.49 132.86,157.46 133.39,154.20 133.83,154.63 133.96,154.51 134.09,154.39 134.19,154.28 134.28,154.16 134.37,154.01"/>
    </edge>
    <edge id=":CJ_3_w0" function="walkingarea">
        <lane id=":CJ_3_w0_0" index="0" allow="pedestrian" speed="2.78" length="3.60" width="4.00" shape="140.93,-161.93 142.33,-163.36 143.19,-162.50 143.78,-161.83 144.22,-161.22 144.58,-160.57 144.97,-159.75 145.48,-158.64 143.66,-157.80 143.21,-158.80 142.87,-159.51 142.56,-160.08 142.19,-160.60 141.67,-161.19"/>
    </edge>
    <edge id=":CJ_3_w1" function="walkingarea">
        <lane id=":CJ_3_w1_0" index="0" allow="pedestrian" speed="2.78" length="1.57" width="4.00" shape="134.47,-153.80 132.64,-152.99 132.39,-153.25 133.83,-154.63 133.96,-154.51 134.09,-154.39 134.19,-154.28 134.28,-154.16 134.37,-154.01"/>
    </edge>
    <edge id=":CJ_4_0" function="internal">
        <lane id=":CJ_4_0_0" index="0" allow="bicycle" speed="13.89" length="3.92" width="2.50" shape="158.20,-118.76 155.18,-121.27"/>
    </edge>
    <edge id=":CJ_4_1" function="internal">
        <lane id=":CJ_4_1_0" index="0" allow="bicycle" speed="13.89" length="4.19" width="2.50" shape="150.43,-115.12 153.84,-112.53"/>
        <lane id=":CJ_4_1_1" index="1" disallow="pedestrian" speed="13.89" length="4.19" width="5.00" shape="152.72,-118.09 155.99,-115.60"/>
    </edge>
    <edge id=":CJ_4_c0" function="crossing" crossingEdges="BynPl_1_3 BynPl_2_1">
        <lane id=":CJ_4_c0_0" index="0" allow="pedestrian" speed="2.78" length="10.15" width="4.00" shape="151.48,-112.65 157.32,-120.95" outlineShape="153.12,111.50 158.96,119.80 156.99,123.62 157.17,123.84 160.08,121.41 158.98,119.91 155.69,122.10 149.85,113.80 153.12,111.51 151.97,109.87 148.78,112.29"/>
    </edge>
    <edge id=":CJ_4_w0" function="walkingarea">
        <lane id=":CJ_4_w0_0" index="0" allow="pedestrian" speed="2.78" length="2.75" width="4.00" shape="155.95,-122.26 157.17,-123.84 160.08,-121.41 158.90,-119.80 155.69,-122.10"/>
    </edge>
    <edge id=":CJ_4_w1" function="walkingarea">
        <lane id=":CJ_4_w1_0" index="0" allow="pedestrian" speed="2.78" length="3.05" width="4.00" shape="149.85,-113.80 153.12,-111.51 151.97,-109.87 148.45,-112.53 149.64,-114.14"/>
    </edge>
    <edge id=":CJ_5_0" function="internal">
        <lane id=":CJ_5_0_0" index="0" allow="bicycle" speed="13.89" length="14.59" width="2.50" shape="174.62,-107.95 162.30,-115.77"/>
    </edge>
    <edge id=":CJ_5_1" function="internal">
        <lane id=":CJ_5_1_0" index="0" allow="bicycle" speed="9.03" length="3.05" width="2.50" shape="174.62,-107.95 171.82,-109.19"/>
    </edge>
    <edge id=":CJ_5_2" function="internal">
        <lane id=":CJ_5_2_0" index="0" allow="bicycle" speed="4.21" length="1.13" width="2.50" shape="174.62,-107.95 173.49,-107.96"/>
    </edge>
    <edge id=":CJ_5_11" function="internal">
        <lane id=":CJ_5_11_0" index="0" allow="bicycle" speed="9.03" length="15.46" width="2.50" shape="171.82,-109.19 170.48,-109.78 166.50,-109.59 162.68,-107.38 159.03,-103.15"/>
    </edge>
    <edge id=":CJ_5_12" function="internal">
        <lane id=":CJ_5_12_0" index="0" allow="bicycle" speed="4.21" length="6.34" width="2.50" shape="173.49,-107.96 172.31,-107.96 171.06,-107.26 170.88,-105.84 171.76,-103.71"/>
    </edge>
    <edge id=":CJ_5_3" function="internal">
        <lane id=":CJ_5_3_0" index="0" allow="bicycle" speed="6.24" length="7.91" width="2.50" shape="163.58,-100.09 165.08,-101.76 166.71,-102.57 168.47,-102.53 170.36,-101.63"/>
        <lane id=":CJ_5_3_1" index="1" disallow="pedestrian" speed="7.39" length="11.65" width="5.00" shape="162.96,-100.51 165.42,-103.51 167.82,-105.21 170.17,-105.62 172.46,-104.74"/>
    </edge>
    <edge id=":CJ_5_5" function="internal">
        <lane id=":CJ_5_5_0" index="0" allow="bicycle" speed="8.79" length="16.66" width="2.50" shape="162.34,-100.94 164.87,-105.57 165.70,-109.59 164.85,-112.99 162.30,-115.77"/>
    </edge>
    <edge id=":CJ_5_6" function="internal">
        <lane id=":CJ_5_6_0" index="0" allow="bicycle" speed="5.96" length="2.91" width="2.50" shape="157.87,-109.70 159.37,-108.29 159.72,-107.52"/>
    </edge>
    <edge id=":CJ_5_7" function="internal">
        <lane id=":CJ_5_7_0" index="0" allow="bicycle" speed="13.89" length="14.87" width="2.50" shape="157.87,-109.70 170.36,-101.63"/>
    </edge>
    <edge id=":CJ_5_8" function="internal">
        <lane id=":CJ_5_8_0" index="0" disallow="pedestrian" speed="7.38" length="1.45" width="4.00" shape="160.08,-112.73 161.06,-111.66"/>
    </edge>
    <edge id=":CJ_5_9" function="internal">
        <lane id=":CJ_5_9_0" index="0" disallow="pedestrian" speed="13.89" length="14.73" width="5.00" shape="160.08,-112.73 172.46,-104.74"/>
    </edge>
    <edge id=":CJ_5_10" function="internal">
        <lane id=":CJ_5_10_0" index="0" allow="bicycle" speed="3.73" length="1.50" width="2.50" shape="160.80,-113.76 161.93,-113.70 162.26,-113.87"/>
    </edge>
    <edge id=":CJ_5_13" function="internal">
        <lane id=":CJ_5_13_0" index="0" allow="bicycle" speed="5.96" length="4.66" width="2.50" shape="159.72,-107.52 160.06,-106.73 159.95,-105.02 159.03,-103.15"/>
    </edge>
    <edge id=":CJ_5_14" function="internal">
        <lane id=":CJ_5_14_0" index="0" disallow="pedestrian" speed="7.38" length="9.77" width="4.00" shape="161.06,-111.66 161.68,-110.97 162.14,-108.72 161.46,-105.97 159.65,-102.73"/>
    </edge>
    <edge id=":CJ_5_15" function="internal">
        <lane id=":CJ_5_15_0" index="0" allow="bicycle" speed="3.73" length="2.16" width="2.50" shape="162.26,-113.87 162.56,-114.01 162.68,-114.71 162.30,-115.77"/>
    </edge>
    <edge id=":CJ_5_c0" function="crossing" crossingEdges="GorSq_2_3 GorSq_1_1">
        <lane id=":CJ_5_c0_0" index="0" allow="pedestrian" speed="2.78" length="7.99" width="4.00" shape="159.12,-105.51 165.74,-101.04" outlineShape="158.00,103.85 164.62,99.38 165.35,100.30 166.13,100.92 166.95,101.27 167.82,101.33 168.42,101.18 166.86,102.70 160.24,107.16 158.04,107.89 158.49,107.27 158.76,106.49 158.77,105.67 158.51,104.78"/>
    </edge>
    <edge id=":CJ_5_w0" function="walkingarea">
        <lane id=":CJ_5_w0_0" index="0" allow="pedestrian" speed="2.78" length="14.50" width="2.00" shape="163.04,-116.78 164.22,-118.40 176.43,-110.65 175.31,-108.99"/>
    </edge>
    <edge id=":CJ_5_w1" function="walkingarea">
        <lane id=":CJ_5_w1_0" index="0" allow="pedestrian" speed="2.78" length="3.20" width="4.00" shape="169.66,-100.60 168.55,-98.94 166.27,-98.26 164.62,-99.39 165.35,-100.30 166.13,-100.92 166.95,-101.27 167.82,-101.33 168.72,-101.10"/>
    </edge>
    <edge id=":CJ_5_w2" function="walkingarea">
        <lane id=":CJ_5_w2_0" index="0" allow="pedestrian" speed="2.78" length="3.09" width="4.00" shape="157.99,-103.85 156.34,-104.98 155.97,-107.07 157.12,-108.71 157.96,-108.00 158.49,-107.27 158.76,-106.49 158.77,-105.67 158.51,-104.78"/>
    </edge>
    <edge id=":CJ_6_0" function="internal">
        <lane id=":CJ_6_0_0" index="0" allow="bicycle" speed="13.89" length="4.26" width="2.50" shape="209.64,-84.18 206.19,-86.68"/>
    </edge>
    <edge id=":CJ_6_1" function="internal">
        <lane id=":CJ_6_1_0" index="0" allow="bicycle" speed="13.89" length="4.29" width="2.50" shape="201.94,-80.37 205.46,-77.90"/>
        <lane id=":CJ_6_1_1" index="1" disallow="pedestrian" speed="13.89" length="4.29" width="5.00" shape="204.04,-83.48 207.54,-81.02"/>
    </edge>
    <edge id=":CJ_6_c0" function="crossing" crossingEdges="GorSq_1_3 GorSq_2_1">
        <lane id=":CJ_6_c0_0" index="0" allow="pedestrian" speed="2.78" length="10.04" width="4.00" shape="203.10,-77.97 208.67,-86.33" outlineShape="204.77,76.86 210.34,85.22 210.39,85.31 210.33,85.22 207.01,87.44 201.44,79.08 204.77,76.86 203.66,75.20 200.13,77.67 201.24,79.33 201.44,79.08"/>
    </edge>
    <edge id=":CJ_6_w0" function="walkingarea">
        <lane id=":CJ_6_w0_0" index="0" allow="pedestrian" speed="2.78" length="3.00" width="4.00" shape="206.89,-87.72 208.01,-89.38 211.44,-86.88 210.33,-85.22 207.01,-87.44"/>
    </edge>
    <edge id=":CJ_6_w1" function="walkingarea">
        <lane id=":CJ_6_w1_0" index="0" allow="pedestrian" speed="2.78" length="3.01" width="4.00" shape="201.44,-79.08 204.77,-76.86 203.66,-75.20 200.13,-77.67 201.24,-79.33"/>
    </edge>
    <edge id=":CJ_7_0" function="internal">
        <lane id=":CJ_7_0_0" index="0" allow="bicycle" speed="6.15" length="7.77" width="2.50" shape="-2.81,-258.59 -4.27,-256.99 -5.87,-256.21 -7.62,-256.25 -9.51,-257.11"/>
        <lane id=":CJ_7_0_1" index="1" disallow="pedestrian" speed="7.24" length="11.17" width="5.00" shape="-2.53,-258.40 -4.92,-255.45 -7.22,-253.73 -9.43,-253.23 -11.55,-253.96"/>
    </edge>
    <edge id=":CJ_7_2" function="internal">
        <lane id=":CJ_7_2_0" index="0" allow="bicycle" speed="13.89" length="17.50" width="1.00" shape="-3.43,-259.02 -13.02,-244.39"/>
    </edge>
    <edge id=":CJ_7_3" function="internal">
        <lane id=":CJ_7_3_0" index="0" allow="bicycle" speed="8.18" length="15.22" width="2.50" shape="-2.24,-258.20 -5.01,-253.49 -6.25,-249.66 -5.97,-246.70 -4.17,-244.62"/>
    </edge>
    <edge id=":CJ_7_4" function="internal">
        <lane id=":CJ_7_4_0" index="0" allow="bicycle" speed="5.73" length="2.62" width="1.00" shape="-0.06,-251.00 -1.40,-252.22 -1.69,-252.97"/>
    </edge>
    <edge id=":CJ_7_5" function="internal">
        <lane id=":CJ_7_5_0" index="0" allow="bicycle" speed="13.89" length="11.25" width="2.50" shape="-0.06,-251.00 -9.51,-257.11"/>
    </edge>
    <edge id=":CJ_7_6" function="internal">
        <lane id=":CJ_7_6_0" index="0" allow="bicycle" speed="8.52" length="7.28" width="1.00" shape="-0.06,-251.00 -3.07,-252.01 -6.24,-251.24 -6.91,-250.73"/>
    </edge>
    <edge id=":CJ_7_7" function="internal">
        <lane id=":CJ_7_7_0" index="0" disallow="pedestrian" speed="13.89" length="11.26" width="5.00" shape="-2.09,-247.85 -11.55,-253.96"/>
    </edge>
    <edge id=":CJ_7_14" function="internal">
        <lane id=":CJ_7_14_0" index="0" allow="bicycle" speed="5.73" length="4.53" width="1.00" shape="-1.69,-252.97 -1.96,-253.66 -1.75,-255.32 -0.78,-257.20"/>
    </edge>
    <edge id=":CJ_7_15" function="internal">
        <lane id=":CJ_7_15_0" index="0" allow="bicycle" speed="8.52" length="8.86" width="1.00" shape="-6.91,-250.73 -9.55,-248.70 -13.02,-244.39"/>
    </edge>
    <edge id=":CJ_7_8" function="internal">
        <lane id=":CJ_7_8_0" index="0" allow="bicycle" speed="6.20" length="7.94" width="2.50" shape="-10.99,-243.00 -9.50,-244.67 -7.86,-245.49 -6.09,-245.47 -4.17,-244.62"/>
    </edge>
    <edge id=":CJ_7_9" function="internal">
        <lane id=":CJ_7_9_0" index="0" allow="bicycle" speed="13.89" length="17.49" width="1.00" shape="-10.37,-242.58 -0.78,-257.20"/>
    </edge>
    <edge id=":CJ_7_10" function="internal">
        <lane id=":CJ_7_10_0" index="0" disallow="pedestrian" speed="7.41" length="12.23" width="5.00" shape="-11.28,-243.20 -9.42,-246.63 -8.84,-249.56 -9.55,-252.01 -11.55,-253.96"/>
    </edge>
    <edge id=":CJ_7_11" function="internal">
        <lane id=":CJ_7_11_0" index="0" allow="bicycle" speed="5.78" length="2.87" width="1.00" shape="-13.64,-250.72 -12.32,-249.49 -11.95,-248.49"/>
    </edge>
    <edge id=":CJ_7_12" function="internal">
        <lane id=":CJ_7_12_0" index="0" allow="bicycle" speed="13.89" length="11.27" width="2.50" shape="-13.64,-250.72 -4.17,-244.62"/>
    </edge>
    <edge id=":CJ_7_13" function="internal">
        <lane id=":CJ_7_13_0" index="0" allow="bicycle" speed="8.49" length="1.98" width="1.00" shape="-13.64,-250.72 -11.77,-250.09"/>
    </edge>
    <edge id=":CJ_7_16" function="internal">
        <lane id=":CJ_7_16_0" index="0" allow="bicycle" speed="5.78" length="4.40" width="1.00" shape="-11.95,-248.49 -11.77,-248.03 -12.01,-246.33 -13.02,-244.39"/>
    </edge>
    <edge id=":CJ_7_17" function="internal">
        <lane id=":CJ_7_17_0" index="0" allow="bicycle" speed="8.49" length="14.01" width="1.00" shape="-11.77,-250.09 -10.65,-249.71 -7.50,-250.45 -4.21,-252.95 -0.78,-257.20"/>
    </edge>
    <edge id=":CJ_7_c0" function="crossing" crossingEdges="RidGa_1_1 RidGa_2_1">
        <lane id=":CJ_7_c0_0" index="0" allow="pedestrian" speed="2.78" length="4.22" width="4.00" shape="-1.49,-255.27 -4.98,-257.65" outlineShape="-0.36,256.91 -3.85,259.30 -3.93,259.36 -3.85,259.30 -4.56,258.43 -5.32,257.83 -6.13,257.50 -6.98,257.45 -7.64,257.61 -6.11,256.01 -2.63,253.62 -0.36,256.91 1.29,255.78 1.70,253.73 0.61,252.05 -0.24,252.72 -0.41,252.94"/>
    </edge>
    <edge id=":CJ_7_c1" function="crossing" crossingEdges="CheMe_2_1 CheMe_1_1">
        <lane id=":CJ_7_c1_0" index="0" allow="pedestrian" speed="2.78" length="4.21" width="4.00" shape="-12.31,-246.32 -8.83,-243.95" outlineShape="-13.44,244.67 -9.96,242.30 -9.22,243.21 -8.43,243.85 -7.60,244.20 -6.73,244.27 -6.13,244.13 -7.70,245.60 -11.18,247.97 -13.28,248.76 -12.90,248.26 -12.61,247.46 -12.60,246.59 -12.88,245.66"/>
    </edge>
    <edge id=":CJ_7_w0" function="walkingarea">
        <lane id=":CJ_7_w0_0" index="0" allow="pedestrian" speed="2.78" length="3.18" width="4.00" shape="-8.83,-258.16 -7.75,-259.84 -5.49,-260.43 -3.85,-259.30 -4.56,-258.43 -5.32,-257.83 -6.13,-257.50 -6.98,-257.45 -7.89,-257.67"/>
    </edge>