<?xml version="1.0" encoding="UTF-8"?>

<!-- generated on 2026-01-09T20:12:46.000020+00:00 by Eclipse SUMO netedit 1.25.0
-->

<additional xmlns:xsi="http://www.w3.org/2001/XMLSchema-instance" xsi:noNamespaceSchemaLocation="http://sumo.dlr.de/xsd/additional_file.xsd">
    <!-- Detectors -->
    <inductionLoop id="CJ_1_EB_2_1" lane="TorPl_1_4_1" pos="2.35" period="300.00" file="detector.CJ_1_EB_2_1.xml"/>
    <inductionLoop id="CJ_1_EB_2_2" lane="TorPl_1_4_2" pos="2.32" period="300.00" file="detector.CJ_1_EB_2_2.xml"/>
    <inductionLoop id="CJ_1_NB_2_1" lane="GowSt_2_2_1" pos="2.39" period="300.00" file="detector.CJ_1_NB_2_1.xml"/>
    <inductionLoop id="CJ_1_NB_2_2" lane="GowSt_2_2_2" pos="2.43" period="300.00" file="detector.CJ_1_NB_2_2.xml"/>
    <inductionLoop id="CJ_1_SB_2_1" lane="GowSt_1_4_1" pos="2.48" period="300.00" file="detector.CJ_1_SB_2_1.xml"/>
    <inductionLoop id="CJ_1_SB_2_2" lane="GowSt_1_4_2" pos="2.44" period="300.00" file="detector.CJ_1_SB_2_2.xml"/>
    <inductionLoop id="CJ_1_WB_2_1" lane="TorPl_2_2_1" pos="2.39" period="300.00" file="detector.CJ_1_WB_2_1.xml"/>
    <inductionLoop id="CJ_1_WB_2_2" lane="TorPl_2_2_2" pos="2.38" period="300.00" file="detector.CJ_1_WB_2_2.xml"/>
    <inductionLoop id="CJ_2_EB_2_1" lane="BynPl_1_1_1" pos="2.44" period="300.00" file="detector.CJ_2_EB_2_1.xml"/>
    <inductionLoop id="CJ_2_EB_2_2" lane="BynPl_1_1_2" pos="2.44" period="300.00" file="detector.CJ_2_EB_2_2.xml"/>
    <inductionLoop id="CJ_2_SB_1_1" lane="MalSt_1_1_1" pos="2.22" period="300.00" file="detector.CJ_2_SB_1_1.xml"/>
    <inductionLoop id="CJ_2_WB_2_1" lane="TorPl_2_1_1" pos="2.21" period="300.00" file="detector.CJ_2_WB_2_1.xml"/>
    <inductionLoop id="CJ_9_NB_2_1" lane="GowSt_2_3_1" pos="2.24" period="300.00" file="detector.CJ_9_NB_2_1.xml"/>
    <inductionLoop id="CJ_9_NB_2_2" lane="GowSt_2_3_2" pos="2.25" period="300.00" file="detector.CJ_9_NB_2_2.xml"/>
    <inductionLoop id="CJ_9_SB_2_1" lane="GowSt_1_3_1" pos="2.30" period="300.00" file="detector.CJ_9_SB_2_1.xml"/>
    <inductionLoop id="CJ_9_SB_2_2" lane="GowSt_1_3_2" pos="2.29" period="300.00" file="detector.CJ_9_SB_2_2.xml"/>
    <laneAreaDetector id="CJ_1_EB_1_1" lane="TorPl_1_3_1" pos="5.00" length="30.00" period="300.00" file="detector.CJ_1_EB_1_1.xml"/>
    <laneAreaDetector id="CJ_1_NB_1_1" lane="GowSt_2_1_1" pos="86.00" length="30.00" friendlyPos="1" period="300.00" file="detector.CJ_1_NB_1_1.xml"/>
    <laneAreaDetector id="CJ_1_NB_1_2" lane="GowSt_2_1_2" pos="66.00" length="50.00" friendlyPos="1" period="300.00" file="detector.CJ_1_NB_1_2.xml"/>
    <laneAreaDetector id="CJ_1_SB_1_1" lane="GowSt_1_3_1" pos="152.50" length="30.00" period="300.00" file="detector.CJ_1_SB_1_1.xml"/>
    <laneAreaDetector id="CJ_1_SB_1_2" lane="GowSt_1_3_2" pos="132.50" length="50.00" period="300.00" file="detector.CJ_1_SB_1_2.xml"/>
    <laneAreaDetector id="CJ_1_WB_1_1" lane="TorPl_2_1_1" pos="23.75" length="30.00" period="300.00" file="detector.CJ_1_WB_1_1.xml"/>
    <laneAreaDetector id="CJ_2_EB_1_1" lane="TorPl_1_4_1" pos="29.00" length="25.00" friendlyPos="1" period="300.00" file="detector.CJ_2_EB_1_1.xml"/>
    <laneAreaDetector id="CJ_2_EB_1_2" lane="TorPl_1_4_2" pos="29.00" length="25.00" friendlyPos="1" period="300.00" file="detector.CJ_2_EB_1_2.xml"/>
    <laneAreaDetector id="CJ_2_NB_1_1" lane="MalSt_2_1_1" pos="91.75" length="25.00" period="300.00" file="detector.CJ_2_NB_1_1.xml"/>
    <laneAreaDetector id="CJ_2_WB_1_1" lane="BynPl_2_3_1" pos="19.75" length="25.00" period="300.00" file="detector.CJ_2_WB_1_1.xml"/>
    <laneAreaDetector id="CJ_9_EB_1_1" lane="UniSt_1_1_1" pos="32.00" length="25.00" period="300.00" file="detector.CJ_9_EB_1_1.xml"/>
    <laneAreaDetector id="CJ_9_NB_1_1" lane="GowSt_2_2_1" pos="157.50" length="25.00" period="300.00" file="detector.CJ_9_NB_1_1.xml"/>
    <laneAreaDetector id="CJ_9_NB_1_2" lane="GowSt_2_2_2" pos="157.50" length="25.00" period="300.00" file="detector.CJ_9_NB_1_2.xml"/>
    <laneAreaDetector id="CJ_9_SB_1_1" lane="GowSt_1_2_1" pos="8.50" length="25.00" period="300.00" file="detector.CJ_9_SB_1_1.xml"/>
    <laneAreaDetector id="CJ_9_SB_1_2" lane="GowSt_1_2_2" pos="8.50" length="25.00" period="300.00" file="detector.CJ_9_SB_1_2.xml"/>
</additional>
