<?xml version="1.0" encoding="UTF-8"?>

<!-- generated on 2026-01-09T20:42:33.138070+00:00 by Eclipse SUMO netedit 1.25.0
<neteditConfiguration xmlns:xsi="http://www.w3.org/2001/XMLSchema-instance" xsi:noNamespaceSchemaLocation="http://sumo.dlr.de/xsd/neteditConfiguration.xsd">

    <input>
        <sumocfg-file value="simulation.sumocfg"/>
        <additional-files value="networks/extended/detectors.add.xml"/>
        <sumo-net-file value="networks/extended/main.net.xml"/>
    </input>

    <output>
        <output-file value="networks/extended/main.net.xml"/>
    </output>

    <processing>
        <geometry.min-radius.fix.railways value="false"/>
        <geometry.avoid-overlap value="false"/>
        <geometry.max-grade.fix value="false"/>
        <offset.disable-normalization value="true"/>
        <lefthand value="1"/>
    </processing>

    <junctions>
        <no-internal-links value="false"/>
        <no-turnarounds value="true"/>
        <junctions.corner-detail value="5"/>
        <junctions.limit-turn-speed value="5.50"/>
        <rectangular-lane-cut value="0"/>
    </junctions>

    <pedestrian>
        <walkingareas value="0"/>
    </pedestrian>

    <netedit>
        <ignore.routeelements value="false"/>
    </netedit>

</neteditConfiguration>
-->

<net version="1.20" junctionCornerDetail="5" lefthand="true" limitTurnSpeed="5.50" avoidOverlap="0" xmlns:xsi="http://www.w3.org/2001/XMLSchema-instance" xsi:noNamespaceSchemaLocation="http://sumo.dlr.de/xsd/net_file.xsd">

    <location netOffset="0.00,0.00" convBoundary="-134.01,-330.42,234.64,12.56" origBoundary="-10000000000.00,-10000000000.00,10000000000.00,10000000000.00" projParameter="!"/>

    <edge id=":CJ_1_0" function="internal">
        <lane id=":CJ_1_0_0" index="0" allow="bicycle" speed="6.31" length="4.57" width="1.00" shape="37.02,-233.72 35.30,-231.77 33.57,-230.84"/>
    </edge>
    <edge id=":CJ_1_1" function="internal">
        <lane id=":CJ_1_1_0" index="0" allow="bicycle" speed="13.89" length="18.78" width="1.00" shape="37.02,-233.72 26.30,-218.30"/>
    </edge>
    <edge id=":CJ_1_2" function="internal">
        <lane id=":CJ_1_2_0" index="0" allow="bicycle" speed="9.23" length="8.73" width="1.00" shape="37.53,-233.52 35.63,-229.03 35.81,-225.18"/>
    </edge>
    <edge id=":CJ_1_3" function="internal">
        <lane id=":CJ_1_3_0" index="0" disallow="pedestrian" speed="8.10" length="9.93" width="5.00" shape="38.96,-232.45 36.19,-229.20 34.07,-227.31 31.48,-227.20 31.26,-227.27"/>
    </edge>
    <edge id=":CJ_1_4" function="internal">
        <lane id=":CJ_1_4_0" index="0" disallow="pedestrian" speed="13.89" length="18.78" width="4.00" shape="39.09,-232.32 28.37,-216.90"/>
    </edge>
    <edge id=":CJ_1_5" function="internal">
        <lane id=":CJ_1_5_0" index="0" disallow="pedestrian" speed="8.72" length="4.21" width="5.00" shape="38.95,-232.46 37.65,-228.45"/>
    </edge>
    <edge id=":CJ_1_20" function="internal">
        <lane id=":CJ_1_20_0" index="0" allow="bicycle" speed="6.31" length="4.43" width="1.00" shape="33.57,-230.84 33.45,-230.77 31.46,-230.74 29.35,-231.68"/>
    </edge>
    <edge id=":CJ_1_21" function="internal">
        <lane id=":CJ_1_21_0" index="0" allow="bicycle" speed="9.23" length="11.87" width="1.00" shape="35.81,-225.18 36.93,-221.92 38.93,-218.72 42.17,-215.38"/>
    </edge>
    <edge id=":CJ_1_22" function="internal">
        <lane id=":CJ_1_22_0" index="0" disallow="pedestrian" speed="8.10" length="4.16" width="5.00" shape="31.26,-227.27 27.31,-228.53"/>
    </edge>
    <edge id=":CJ_1_23" function="internal">
        <lane id=":CJ_1_23_0" index="0" disallow="pedestrian" speed="8.72" length="13.11" width="5.00" shape="37.65,-228.45 37.56,-225.60 38.34,-222.70 40.09,-220.29 43.70,-218.01"/>
    </edge>
    <edge id=":CJ_1_6" function="internal">
        <lane id=":CJ_1_6_0" index="0" allow="bicycle" speed="6.28" length="4.63" width="1.00" shape="45.65,-221.15 43.88,-222.67 43.08,-224.44 43.11,-224.79"/>
    </edge>
    <edge id=":CJ_1_7" function="internal">
        <lane id=":CJ_1_7_0" index="0" allow="bicycle" speed="13.89" length="19.41" width="2.50" shape="45.65,-221.15 29.35,-231.68"/>
    </edge>
    <edge id=":CJ_1_8" function="internal">
        <lane id=":CJ_1_8_0" index="0" allow="bicycle" speed="9.65" length="9.36" width="1.00" shape="45.95,-221.63 41.31,-222.17 37.50,-222.23 36.63,-222.10"/>
    </edge>
    <edge id=":CJ_1_9" function="internal">
        <lane id=":CJ_1_9_0" index="0" allow="bicycle" speed="4.15" length="3.61" width="2.50" shape="45.65,-221.15 43.42,-221.08 42.25,-220.35"/>
    </edge>
    <edge id=":CJ_1_24" function="internal">
        <lane id=":CJ_1_24_0" index="0" allow="bicycle" speed="6.28" length="4.23" width="1.00" shape="43.11,-224.79 43.26,-226.47 44.41,-228.75"/>
    </edge>
    <edge id=":CJ_1_25" function="internal">
        <lane id=":CJ_1_25_0" index="0" allow="bicycle" speed="9.65" length="11.34" width="1.00" shape="36.63,-222.10 34.27,-221.73 30.65,-220.96 26.02,-218.49"/>
    </edge>
    <edge id=":CJ_1_26" function="internal">
        <lane id=":CJ_1_26_0" index="0" allow="bicycle" speed="4.15" length="3.61" width="2.50" shape="42.25,-220.35 42.12,-218.98 43.05,-216.95"/>
    </edge>
    <edge id=":CJ_1_10" function="internal">
        <lane id=":CJ_1_10_0" index="0" allow="bicycle" speed="6.42" length="4.96" width="1.00" shape="33.74,-213.33 35.39,-215.13 37.27,-215.98 37.73,-215.96"/>
    </edge>
    <edge id=":CJ_1_11" function="internal">
        <lane id=":CJ_1_11_0" index="0" allow="bicycle" speed="13.89" length="18.75" width="1.00" shape="33.74,-213.33 44.41,-228.75"/>
    </edge>
    <edge id=":CJ_1_12" function="internal">
        <lane id=":CJ_1_12_0" index="0" allow="bicycle" speed="9.22" length="8.57" width="1.00" shape="33.98,-213.12 35.04,-217.66 34.80,-220.96 34.65,-221.54"/>
    </edge>
    <edge id=":CJ_1_13" function="internal">
        <lane id=":CJ_1_13_0" index="0" disallow="pedestrian" speed="8.16" length="10.01" width="5.00" shape="31.67,-214.68 34.37,-217.77 36.86,-219.29 39.85,-219.38"/>
    </edge>
    <edge id=":CJ_1_14" function="internal">
        <lane id=":CJ_1_14_0" index="0" disallow="pedestrian" speed="13.89" length="18.76" width="4.00" shape="31.67,-214.73 42.34,-230.15"/>
    </edge>
    <edge id=":CJ_1_15" function="internal">
        <lane id=":CJ_1_15_0" index="0" disallow="pedestrian" speed="8.59" length="4.36" width="5.00" shape="31.69,-214.66 33.34,-218.28 33.28,-218.67"/>
    </edge>
    <edge id=":CJ_1_27" function="internal">
        <lane id=":CJ_1_27_0" index="0" allow="bicycle" speed="6.42" length="4.23" width="1.00" shape="37.73,-215.96 39.38,-215.88 41.73,-214.82"/>
    </edge>
    <edge id=":CJ_1_28" function="internal">
        <lane id=":CJ_1_28_0" index="0" allow="bicycle" speed="9.22" length="11.61" width="1.00" shape="34.65,-221.54 33.91,-224.47 32.17,-228.08 29.35,-231.68"/>
    </edge>
    <edge id=":CJ_1_29" function="internal">
        <lane id=":CJ_1_29_0" index="0" disallow="pedestrian" speed="8.16" length="4.11" width="5.00" shape="39.85,-219.38 40.05,-219.39 43.70,-218.01"/>
    </edge>
    <edge id=":CJ_1_30" function="internal">
        <lane id=":CJ_1_30_0" index="0" disallow="pedestrian" speed="8.59" length="12.11" width="5.00" shape="33.28,-218.67 32.93,-220.98 32.40,-223.25 30.91,-225.65 27.31,-228.53"/>
    </edge>
    <edge id=":CJ_1_16" function="internal">
        <lane id=":CJ_1_16_0" index="0" allow="bicycle" speed="6.13" length="3.92" width="1.00" shape="25.32,-225.44 26.90,-224.02 27.59,-222.36"/>
    </edge>
    <edge id=":CJ_1_17" function="internal">
        <lane id=":CJ_1_17_0" index="0" allow="bicycle" speed="13.89" length="19.54" width="2.50" shape="25.32,-225.44 41.73,-214.82"/>
    </edge>
    <edge id=":CJ_1_18" function="internal">
        <lane id=":CJ_1_18_0" index="0" allow="bicycle" speed="9.67" length="9.65" width="1.00" shape="25.30,-225.45 29.47,-224.06 33.56,-223.94 34.71,-224.10"/>
    </edge>
    <edge id=":CJ_1_19" function="internal">
        <lane id=":CJ_1_19_0" index="0" allow="bicycle" speed="4.15" length="3.60" width="2.50" shape="25.32,-225.44 27.54,-225.48 28.72,-226.18"/>
    </edge>
    <edge id=":CJ_1_31" function="internal">
        <lane id=":CJ_1_31_0" index="0" allow="bicycle" speed="6.13" length="4.33" width="1.00" shape="27.59,-222.36 27.39,-220.45 26.30,-218.30"/>
    </edge>
    <edge id=":CJ_1_32" function="internal">
        <lane id=":CJ_1_32_0" index="0" allow="bicycle" speed="9.67" length="11.39" width="1.00" shape="34.71,-224.10 37.24,-224.46 40.97,-226.19 45.26,-228.17"/>
    </edge>
    <edge id=":CJ_1_33" function="internal">
        <lane id=":CJ_1_33_0" index="0" allow="bicycle" speed="4.15" length="3.60" width="2.50" shape="28.72,-226.18 28.87,-227.55 27.99,-229.58"/>
    </edge>
    <edge id=":CJ_1_c0" function="crossing" crossingEdges="GowSt_1_4 GowSt_2_1">
        <lane id=":CJ_1_c0_0" index="0" allow="pedestrian" speed="2.78" length="9.90" width="4.00" shape="43.70,-226.81 35.49,-232.35" outlineShape="44.81,228.47 36.60,234.01 35.70,232.90 34.72,232.15 33.66,231.76 32.82,231.73 44.46,223.89 44.35,224.02 43.92,225.03 43.85,226.10 44.15,227.25"/>
    </edge>
    <edge id=":CJ_1_c1" function="crossing" crossingEdges="TorPl_1_4 TorPl_2_1">
        <lane id=":CJ_1_c1_0" index="0" allow="pedestrian" speed="2.78" length="9.94" width="4.00" shape="39.37,-214.82 44.60,-223.27" outlineShape="41.07,213.76 46.31,222.21 45.14,223.08 44.35,224.02 43.92,225.03 43.86,225.87 37.13,214.99 38.28,214.93 39.62,214.52"/>
    </edge>
    <edge id=":CJ_1_c2" function="crossing" crossingEdges="GowSt_2_2 GowSt_1_3">
        <lane id=":CJ_1_c2_0" index="0" allow="pedestrian" speed="2.78" length="9.94" width="4.00" shape="27.00,-220.24 35.27,-214.71" outlineShape="25.89,218.57 34.16,213.05 35.01,214.05 35.98,214.70 37.07,214.99 38.28,214.93 38.75,214.79 25.78,223.46 26.38,222.72 26.76,221.78 26.80,220.78 26.51,219.71"/>
    </edge>
    <edge id=":CJ_1_c3" function="crossing" crossingEdges="TorPl_2_2 TorPl_1_3">
        <lane id=":CJ_1_c3_0" index="0" allow="pedestrian" speed="2.78" length="9.91" width="4.00" shape="31.70,-231.64 26.33,-223.31" outlineShape="30.02,232.72 24.65,224.39 25.68,223.59 26.38,222.72 26.76,221.78 26.80,220.78 26.59,220.03 34.32,232.00 33.66,231.76 32.52,231.73 31.31,232.05"/>
    </edge>
    <edge id=":CJ_1_w0" function="walkingarea">
        <lane id=":CJ_1_w0_0" index="0" allow="pedestrian" speed="2.78" length="3.95" width="4.00" shape="30.03,-232.73 31.11,-234.41 34.95,-235.13 36.61,-234.00 35.70,-232.90 34.72,-232.15 33.66,-231.76 32.52,-231.73 31.31,-232.05"/>
    </edge>
    <edge id=":CJ_1_w1" function="walkingarea">
        <lane id=":CJ_1_w1_0" index="0" allow="pedestrian" speed="2.78" length="3.79" width="4.00" shape="44.82,-228.47 46.47,-227.34 47.36,-223.92 46.31,-222.21 45.14,-223.08 44.35,-224.02 43.92,-225.03 43.85,-226.10 44.15,-227.25"/>
    </edge>
    <edge id=":CJ_1_w2" function="walkingarea">
        <lane id=":CJ_1_w2_0" index="0" allow="pedestrian" speed="2.78" length="4.11" width="4.00" shape="41.07,-213.76 40.02,-212.06 35.81,-211.93 34.15,-213.05 35.01,-214.05 35.98,-214.70 37.07,-214.99 38.28,-214.93 39.62,-214.52"/>
    </edge>
    <edge id=":CJ_1_w3" function="walkingarea">
        <lane id=":CJ_1_w3_0" index="0" allow="pedestrian" speed="2.78" length="3.48" width="4.00" shape="25.89,-218.58 24.23,-219.70 23.56,-222.71 24.64,-224.39 25.68,-223.59 26.38,-222.72 26.76,-221.78 26.80,-220.78 26.51,-219.71"/>
    </edge>
    <edge id=":CJ_10_0" function="internal">
        <lane id=":CJ_10_0_0" index="0" allow="bicycle" speed="13.89" length="7.09" width="1.00" shape="-99.14,-14.92 -95.26,-20.85"/>
        <lane id=":CJ_10_0_1" index="1" disallow="pedestrian" speed="13.89" length="7.09" width="4.00" shape="-101.23,-16.29 -97.36,-22.22"/>
    </edge>
    <edge id=":CJ_10_w0" function="walkingarea">
        <lane id=":CJ_10_w0_0" index="0" allow="pedestrian" speed="2.78" length="4.78" width="2.00" shape="-94.84,-20.58 -93.17,-19.49 -92.09,-16.98 -93.18,-15.31 -94.32,-13.56 -97.05,-13.55 -98.72,-14.64"/>
    </edge>
    <edge id=":CJ_2_0" function="internal">
        <lane id=":CJ_2_0_0" index="0" allow="bicycle" speed="6.39" length="8.11" width="2.50" shape="99.03,-194.04 97.54,-192.40 95.87,-191.61 94.03,-191.65 92.01,-192.53"/>
    </edge>
    <edge id=":CJ_2_1" function="internal">
        <lane id=":CJ_2_1_0" index="0" disallow="pedestrian" speed="7.55" length="8.15" width="5.00" shape="99.65,-193.62 97.87,-190.25 97.42,-187.31 97.88,-186.02"/>
    </edge>
    <edge id=":CJ_2_8" function="internal">
        <lane id=":CJ_2_8_0" index="0" disallow="pedestrian" speed="7.55" length="4.32" width="5.00" shape="97.88,-186.02 98.30,-184.81 100.51,-182.73"/>
    </edge>
    <edge id=":CJ_2_2" function="internal">
        <lane id=":CJ_2_2_0" index="0" allow="bicycle" speed="5.78" length="2.70" width="1.00" shape="102.58,-185.92 101.18,-187.18 100.87,-187.94"/>
    </edge>
    <edge id=":CJ_2_3" function="internal">
        <lane id=":CJ_2_3_0" index="0" allow="bicycle" speed="13.89" length="12.47" width="2.50" shape="102.58,-185.92 92.01,-192.53"/>
    </edge>
    <edge id=":CJ_2_4" function="internal">
        <lane id=":CJ_2_4_0" index="0" allow="bicycle" speed="4.19" length="1.00" width="2.50" shape="102.58,-185.92 101.58,-185.90"/>
    </edge>
    <edge id=":CJ_2_9" function="internal">
        <lane id=":CJ_2_9_0" index="0" allow="bicycle" speed="5.78" length="4.56" width="1.00" shape="100.87,-187.94 100.58,-188.64 100.76,-190.32 101.72,-192.20"/>
    </edge>
    <edge id=":CJ_2_10" function="internal">
        <lane id=":CJ_2_10_0" index="0" allow="bicycle" speed="4.19" length="6.37" width="2.50" shape="101.58,-185.90 100.30,-185.89 99.09,-185.17 98.93,-183.77 99.83,-181.68"/>
    </edge>
    <edge id=":CJ_2_5" function="internal">
        <lane id=":CJ_2_5_0" index="0" allow="bicycle" speed="13.89" length="12.31" width="2.50" shape="88.05,-186.13 98.48,-179.58"/>
    </edge>
    <edge id=":CJ_2_6" function="internal">
        <lane id=":CJ_2_6_0" index="0" allow="bicycle" speed="8.72" length="7.84" width="1.00" shape="88.05,-186.13 91.42,-184.95 94.82,-185.57 95.49,-186.05"/>
    </edge>
    <edge id=":CJ_2_7" function="internal">
        <lane id=":CJ_2_7_0" index="0" disallow="pedestrian" speed="13.89" length="12.39" width="5.00" shape="90.02,-189.32 100.51,-182.73"/>
    </edge>
    <edge id=":CJ_2_11" function="internal">
        <lane id=":CJ_2_11_0" index="0" allow="bicycle" speed="8.72" length="8.84" width="1.00" shape="95.49,-186.05 98.25,-187.99 101.72,-192.20"/>
    </edge>
    <edge id=":CJ_2_c0" function="crossing" crossingEdges="MalSt_1_1 MalSt_2_1">
        <lane id=":CJ_2_c0_0" index="0" allow="pedestrian" speed="2.78" length="5.01" width="4.00" shape="101.01,-190.27 96.87,-193.09" outlineShape="102.13,191.92 97.99,194.74 97.25,193.84 96.45,193.23 95.60,192.90 94.68,192.85 94.18,192.96 95.74,191.44 99.88,188.62 102.11,187.96 101.74,188.42 101.41,189.22 101.37,190.07 101.61,190.97"/>
    </edge>
    <edge id=":CJ_2_c1" function="crossing" crossingEdges="BynPl_1_1 BynPl_2_3">
        <lane id=":CJ_2_c1_0" index="0" allow="pedestrian" speed="2.78" length="10.05" width="4.00" shape="96.12,-179.62 101.58,-188.05" outlineShape="97.80,178.53 103.26,186.97 103.31,187.05 103.25,186.97 102.36,187.67 101.74,188.42 101.41,189.22 101.37,190.07 101.53,190.67 99.90,189.14 94.44,180.70 97.80,178.53 96.71,176.85 90.14,179.08 88.48,180.19 86.79,181.33 86.34,183.36 87.40,185.06 94.44,180.70"/>
    </edge>
    <edge id=":CJ_2_w0" function="walkingarea">
        <lane id=":CJ_2_w0_0" index="0" allow="pedestrian" speed="2.78" length="3.41" width="4.00" shape="92.66,-193.60 93.71,-195.30 96.34,-195.87 97.99,-194.75 97.25,-193.84 96.45,-193.23 95.60,-192.90 94.68,-192.85 93.70,-193.08"/>
    </edge>
    <edge id=":CJ_2_w1" function="walkingarea">
        <lane id=":CJ_2_w1_0" index="0" allow="pedestrian" speed="2.78" length="2.95" width="4.00" shape="102.13,-191.92 103.79,-190.79 104.34,-188.65 103.25,-186.97 102.36,-187.67 101.74,-188.42 101.41,-189.22 101.37,-190.07 101.61,-190.97"/>
    </edge>
    <edge id=":CJ_2_w2" function="walkingarea">
        <lane id=":CJ_2_w2_0" index="0" allow="pedestrian" speed="2.78" length="6.93" width="4.00" shape="94.44,-180.70 97.80,-178.53 96.71,-176.85 90.14,-179.08 88.48,-180.19 86.79,-181.33 86.34,-183.36 87.40,-185.06"/>
    </edge>
    <edge id=":CJ_3_0" function="internal">
        <lane id=":CJ_3_0_0" index="0" allow="bicycle" speed="13.89" length="4.50" width="2.50" shape="142.51,-157.32 141.96,-158.53 141.53,-159.35 140.98,-160.08 140.06,-161.04"/>
    </edge>
    <edge id=":CJ_3_1" function="internal">
        <lane id=":CJ_3_1_0" index="0" allow="bicycle" speed="9.86" length="2.29" width="2.50" shape="134.69,-155.55 135.02,-155.22 135.24,-154.98 135.41,-154.72 135.61,-154.30"/>
        <lane id=":CJ_3_1_1" index="1" disallow="pedestrian" speed="13.66" length="2.29" width="5.00" shape="137.31,-158.23 137.94,-157.59 138.35,-157.13 138.67,-156.61 139.05,-155.80"/>
    </edge>
    <edge id=":CJ_3_c0" function="crossing" crossingEdges="BynPl_1_2 BynPl_2_2">
        <lane id=":CJ_3_c0_0" index="0" allow="pedestrian" speed="2.78" length="9.99" width="4.00" shape="133.67,-155.63 142.80,-159.66" outlineShape="134.38,153.76 143.70,157.87 143.49,162.15 143.78,161.83 144.22,161.22 144.58,160.57 144.97,159.75 145.48,158.64 143.66,157.80 142.00,161.49 132.86,157.46 133.39,154.20 133.83,154.63 133.96,154.51 134.09,154.39 134.19,154.28 134.28,154.16 134.37,154.01"/>
    </edge>
    <edge id=":CJ_3_w0" function="walkingarea">
        <lane id=":CJ_3_w0_0" index="0" allow="pedestrian" speed="2.78" length="3.60" width="4.00" shape="140.93,-161.93 142.33,-163.36 143.19,-162.50 143.78,-161.83 144.22,-161.22 144.58,-160.57 144.97,-159.75 145.48,-158.64 143.66,-157.80 143.21,-158.80 142.87,-159.51 142.56,-160.08 142.19,-160.60 141.67,-161.19"/>
    </edge>
    <edge id=":CJ_3_w1" function="walkingarea">
        <lane id=":CJ_3_w1_0" index="0" allow="pedestrian" speed="2.78" length="1.57" width="4.00" shape="134.47,-153.80 132.64,-152.99 132.39,-153.25 133.83,-154.63 133.96,-154.51 134.09,-154.39 134.19,-154.28 134.28,-154.16 134.37,-154.01"/>
    </edge>
    <edge id=":CJ_4_0" function="internal">
        <lane id=":CJ_4_0_0" index="0" allow="bicycle" speed="13.89" length="3.92" width="2.50" shape="158.20,-118.76 155.18,-121.27"/>
    </edge>
    <edge id=":CJ_4_1" function="internal">
        <lane id=":CJ_4_1_0" index="0" allow="bicycle" speed="13.89" length="4.19" width="2.50" shape="150.43,-115.12 153.84,-112.53"/>
        <lane id=":CJ_4_1_1" index="1" disallow="pedestrian" speed="13.89" length="4.19" width="5.00" shape="152.72,-118.09 155.99,-115.60"/>
    </edge>
    <edge id=":CJ_4_c0" function="crossing" crossingEdges="BynPl_1_3 BynPl_2_1">
        <lane id=":CJ_4_c0_0" index="0" allow="pedestrian" speed="2.78" length="10.15" width="4.00" shape="151.48,-112.65 157.32,-120.95" outlineShape="153.12,111.50 158.96,119.80 156.99,123.62 157.17,123.84 160.08,121.41 158.98,119.91 155.69,122.10 149.85,113.80 153.12,111.51 151.97,109.87 148.78,112.29"/>
    </edge>
    <edge id=":CJ_4_w0" function="walkingarea">
        <lane id=":CJ_4_w0_0" index="0" allow="pedestrian" speed="2.78" length="2.75" width="4.00" shape="155.95,-122.26 157.17,-123.84 160.08,-121.41 158.90,-119.80 155.69,-122.10"/>
    </edge>
    <edge id=":CJ_4_w1" function="walkingarea">
        <lane id=":CJ_4_w1_0" index="0" allow="pedestrian" speed="2.78" length="3.05" width="4.00" shape="149.85,-113.80 153.12,-111.51 151.97,-109.87 148.45,-112.53 149.64,-114.14"/>
    </edge>
    <edge id=":CJ_5_0" function="internal">
        <lane id=":CJ_5_0_0" index="0" allow="bicycle" speed="13.89" length="14.59" width="2.50" shape="174.62,-107.95 162.30,-115.77"/>
    </edge>
    <edge id=":CJ_5_1" function="internal">
        <lane id=":CJ_5_1_0" index="0" allow="bicycle" speed="9.03" length="18.51" width="2.50" shape="174.62,-107.95 170.48,-109.78 166.50,-109.59 162.68,-107.38 159.03,-103.15"/>
    </edge>
    <edge id=":CJ_5_2" function="internal">
        <lane id=":CJ_5_2_0" index="0" allow="bicycle" speed="4.21" length="7.47" width="2.50" shape="174.62,-107.95 172.31,-107.96 171.06,-107.26 170.88,-105.84 171.76,-103.71"/>
    </edge>
    <edge id=":CJ_5_3" function="internal">
        <lane id=":CJ_5_3_0" index="0" allow="bicycle" speed="6.24" length="7.91" width="2.50" shape="163.58,-100.09 165.08,-101.76 166.71,-102.57 168.47,-102.53 170.36,-101.63"/>
        <lane id=":CJ_5_3_1" index="1" disallow="pedestrian" speed="7.39" length="11.65" width="5.00" shape="162.96,-100.51 165.42,-103.51 167.82,-105.21 170.17,-105.62 172.46,-104.74"/>
    </edge>
    <edge id=":CJ_5_5" function="internal">
        <lane id=":CJ_5_5_0" index="0" allow="bicycle" speed="8.79" length="16.66" width="2.50" shape="162.34,-100.94 164.87,-105.57 165.70,-109.59 164.85,-112.99 162.30,-115.77"/>
    </edge>
    <edge id=":CJ_5_6" function="internal">
        <lane id=":CJ_5_6_0" index="0" allow="bicycle" speed="5.96" length="2.91" width="2.50" shape="157.87,-109.70 159.37,-108.29 159.72,-107.52"/>
    </edge>
    <edge id=":CJ_5_7" function="internal">
        <lane id=":CJ_5_7_0" index="0" allow="bicycle" speed="13.89" length="14.87" width="2.50" shape="157.87,-109.70 170.36,-101.63"/>
    </edge>
    <edge id=":CJ_5_8" function="internal">
        <lane id=":CJ_5_8_0" index="0" disallow="pedestrian" speed="7.38" length="1.45" width="4.00" shape="160.08,-112.73 161.06,-111.66"/>
    </edge>
    <edge id=":CJ_5_9" function="internal">
        <lane id=":CJ_5_9_0" index="0" disallow="pedestrian" speed="13.89" length="14.73" width="5.00" shape="160.08,-112.73 172.46,-104.74"/>
    </edge>
    <edge id=":CJ_5_10" function="internal">
        <lane id=":CJ_5_10_0" index="0" allow="bicycle" speed="3.73" length="3.66" width="2.50" shape="160.80,-113.76 161.93,-113.70 162.56,-114.01 162.68,-114.71 162.30,-115.77"/>
    </edge>
    <edge id=":CJ_5_11" function="internal">
        <lane id=":CJ_5_11_0" index="0" allow="bicycle" speed="5.96" length="4.66" width="2.50" shape="159.72,-107.52 160.06,-106.73 159.95,-105.02 159.03,-103.15"/>
    </edge>
    <edge id=":CJ_5_12" function="internal">
        <lane id=":CJ_5_12_0" index="0" disallow="pedestrian" speed="7.38" length="9.77" width="4.00" shape="161.06,-111.66 161.68,-110.97 162.14,-108.72 161.46,-105.97 159.65,-102.73"/>
    </edge>
    <edge id=":CJ_5_c0" function="crossing" crossingEdges="GorSq_2_3 GorSq_1_1">
        <lane id=":CJ_5_c0_0" index="0" allow="pedestrian" speed="2.78" length="7.99" width="4.00" shape="159.12,-105.51 165.74,-101.04" outlineShape="158.00,103.85 164.62,99.38 165.35,100.30 166.13,100.92 166.95,101.27 167.82,101.33 168.42,101.18 166.86,102.70 160.24,107.16 158.04,107.89 158.49,107.27 158.76,106.49 158.77,105.67 158.51,104.78"/>
    </edge>
    <edge id=":CJ_5_w0" function="walkingarea">
        <lane id=":CJ_5_w0_0" index="0" allow="pedestrian" speed="2.78" length="14.50" width="2.00" shape="163.04,-116.78 164.22,-118.40 176.43,-110.65 175.31,-108.99"/>
    </edge>
    <edge id=":CJ_5_w1" function="walkingarea">
        <lane id=":CJ_5_w1_0" index="0" allow="pedestrian" speed="2.78" length="3.20" width="4.00" shape="169.66,-100.60 168.55,-98.94 166.27,-98.26 164.62,-99.39 165.35,-100.30 166.13,-100.92 166.95,-101.27 167.82,-101.33 168.72,-101.10"/>
    </edge>
    <edge id=":CJ_5_w2" function="walkingarea">
        <lane id=":CJ_5_w2_0" index="0" allow="pedestrian" speed="2.78" length="3.09" width="4.00" shape="157.99,-103.85 156.34,-104.98 155.97,-107.07 157.12,-108.71 157.96,-108.00 158.49,-107.27 158.76,-106.49 158.77,-105.67 158.51,-104.78"/>
    </edge>
    <edge id=":CJ_6_0" function="internal">
        <lane id=":CJ_6_0_0" index="0" allow="bicycle" speed="13.89" length="4.26" width="2.50" shape="209.64,-84.18 206.19,-86.68"/>
    </edge>
    <edge id=":CJ_6_1" function="internal">
        <lane id=":CJ_6_1_0" index="0" allow="bicycle" speed="13.89" length="4.29" width="2.50" shape="201.94,-80.37 205.46,-77.90"/>
        <lane id=":CJ_6_1_1" index="1" disallow="pedestrian" speed="13.89" length="4.29" width="5.00" shape="204.04,-83.48 207.54,-81.02"/>
    </edge>
    <edge id=":CJ_6_c0" function="crossing" crossingEdges="GorSq_1_3 GorSq_2_1">
        <lane id=":CJ_6_c0_0" index="0" allow="pedestrian" speed="2.78" length="10.04" width="4.00" shape="203.10,-77.97 208.67,-86.33" outlineShape="204.77,76.86 210.34,85.22 210.39,85.31 210.33,85.22 207.01,87.44 201.44,79.08 204.77,76.86 203.66,75.20 200.13,77.67 201.24,79.33 201.44,79.08"/>
    </edge>
    <edge id=":CJ_6_w0" function="walkingarea">
        <lane id=":CJ_6_w0_0" index="0" allow="pedestrian" speed="2.78" length="3.00" width="4.00" shape="206.89,-87.72 208.01,-89.38 211.44,-86.88 210.33,-85.22 207.01,-87.44"/>
    </edge>
    <edge id=":CJ_6_w1" function="walkingarea">
        <lane id=":CJ_6_w1_0" index="0" allow="pedestrian" speed="2.78" length="3.01" width="4.00" shape="201.44,-79.08 204.77,-76.86 203.66,-75.20 200.13,-77.67 201.24,-79.33"/>
    </edge>
    <edge id=":CJ_7_0" function="internal">
        <lane id=":CJ_7_0_0" index="0" allow="bicycle" speed="6.14" length="7.75" width="2.50" shape="-2.77,-258.32 -4.23,-256.73 -5.84,-255.96 -7.58,-256.00 -9.46,-256.87"/>
        <lane id=":CJ_7_0_1" index="1" disallow="pedestrian" speed="7.23" length="11.15" width="5.00" shape="-2.48,-258.12 -4.89,-255.19 -7.20,-253.49 -9.41,-253.00 -11.51,-253.73"/>
    </edge>
    <edge id=":CJ_7_2" function="internal">
        <lane id=":CJ_7_2_0" index="0" allow="bicycle" speed="8.00" length="14.60" width="2.50" shape="-2.20,-257.92 -5.04,-253.27 -6.45,-249.55 -6.42,-246.75 -4.95,-244.89"/>
    </edge>
    <edge id=":CJ_7_3" function="internal">
        <lane id=":CJ_7_3_0" index="0" allow="bicycle" speed="13.89" length="10.28" width="2.50" shape="-0.85,-251.26 -9.46,-256.87"/>
        <lane id=":CJ_7_3_1" index="1" disallow="pedestrian" speed="13.89" length="10.28" width="5.00" shape="-2.88,-248.11 -11.51,-253.73"/>
    </edge>
    <edge id=":CJ_7_5" function="internal">
        <lane id=":CJ_7_5_0" index="0" allow="bicycle" speed="6.17" length="7.90" width="2.50" shape="-11.74,-243.38 -10.29,-245.01 -8.67,-245.81 -6.89,-245.77 -4.95,-244.89"/>
    </edge>
    <edge id=":CJ_7_6" function="internal">
        <lane id=":CJ_7_6_0" index="0" disallow="pedestrian" speed="7.21" length="11.40" width="5.00" shape="-12.03,-243.58 -10.17,-246.95 -9.46,-249.76 -9.91,-252.02 -11.51,-253.73"/>
    </edge>
    <edge id=":CJ_7_7" function="internal">
        <lane id=":CJ_7_7_0" index="0" allow="bicycle" speed="13.89" length="10.33" width="2.50" shape="-13.63,-250.50 -4.95,-244.89"/>
    </edge>
    <edge id=":CJ_7_c0" function="crossing" crossingEdges="RidGa_2_1">
        <lane id=":CJ_7_c0_0" index="0" allow="pedestrian" speed="2.78" length="3.20" width="4.00" shape="-2.31,-255.56 -4.94,-257.39" outlineShape="-1.17,257.21 -3.80,259.03 -3.88,259.09 -3.80,259.03 -4.52,258.17 -5.28,257.57 -6.09,257.25 -6.94,257.20 -7.61,257.37 -6.08,255.75 -3.46,253.92 -1.24,253.24 -1.63,253.73 -1.94,254.52 -1.97,255.36 -1.71,256.26"/>
    </edge>
    <edge id=":CJ_7_c1" function="crossing" crossingEdges="CheMe_1_1">
        <lane id=":CJ_7_c1_0" index="0" allow="pedestrian" speed="2.78" length="3.20" width="4.00" shape="-12.25,-246.13 -9.59,-244.35" outlineShape="-13.36,244.47 -10.70,242.69 -9.99,243.57 -9.22,244.18 -8.40,244.51 -7.53,244.57 -6.93,244.42 -8.48,246.01 -11.13,247.79 -13.27,248.54 -12.88,248.03 -12.58,247.23 -12.56,246.37 -12.82,245.45"/>
    </edge>
    <edge id=":CJ_7_w0" function="walkingarea">
        <lane id=":CJ_7_w0_0" index="0" allow="pedestrian" speed="2.78" length="3.16" width="4.00" shape="-8.77,-257.91 -7.68,-259.59 -5.44,-260.17 -3.80,-259.03 -4.52,-258.17 -5.28,-257.57 -6.09,-257.25 -6.94,-257.20 -7.83,-257.42"/>
    </edge>
    <edge id=":CJ_7_w1" function="walkingarea">
        <lane id=":CJ_7_w1_0" index="0" allow="pedestrian" speed="2.78" length="3.13" width="4.00" shape="-1.14,-257.19 0.50,-256.05 0.91,-254.00 -0.18,-252.32 -1.04,-252.99 -1.63,-253.73 -1.94,-254.52 -1.97,-255.36 -1.71,-256.26"/>
    </edge>
    <edge id=":CJ_7_w2" function="walkingarea">
        <lane id=":CJ_7_w2_0" index="0" allow="pedestrian" speed="2.78" length="3.24" width="4.00" shape="-5.63,-243.83 -6.71,-242.15 -9.04,-241.57 -10.70,-242.69 -9.99,-243.57 -9.22,-244.18 -8.40,-244.51 -7.53,-244.57 -6.60,-244.34"/>
    </edge>
    <edge id=":CJ_7_w3" function="walkingarea">
        <lane id=":CJ_7_w3_0" index="0" allow="pedestrian" speed="2.78" length="3.21" width="4.00" shape="-13.39,-244.39 -15.05,-245.51 -15.40,-247.78 -14.31,-249.45 -13.45,-248.77 -12.88,-248.03 -12.58,-247.23 -12.56,-246.37 -12.82,-245.45"/>
    </edge>
    <edge id=":CJ_8_0" function="internal">
        <lane id=":CJ_8_0_0" index="0" allow="bicycle" speed="5.79" length="7.53" width="1.00" shape="-34.07,-278.78 -35.54,-277.08 -37.10,-276.20 -38.73,-276.12 -40.43,-276.85"/>
    </edge>
    <edge id=":CJ_8_1" function="internal">
        <lane id=":CJ_8_1_0" index="0" allow="bicycle" speed="8.27" length="16.22" width="1.00" shape="-34.07,-278.78 -36.76,-274.01 -37.80,-270.02 -37.17,-266.81 -34.87,-264.38"/>
    </edge>
    <edge id=":CJ_8_2" function="internal">
        <lane id=":CJ_8_2_0" index="0" allow="bicycle" speed="5.95" length="3.04" width="2.50" shape="-30.70,-270.77 -32.29,-272.17 -32.69,-273.00"/>
    </edge>
    <edge id=":CJ_8_3" function="internal">
        <lane id=":CJ_8_3_0" index="0" allow="bicycle" speed="13.89" length="11.47" width="2.50" shape="-30.70,-270.77 -40.43,-276.85"/>
    </edge>
    <edge id=":CJ_8_4" function="internal">
        <lane id=":CJ_8_4_0" index="0" disallow="pedestrian" speed="7.30" length="1.51" shape="-32.75,-267.63 -33.79,-268.73"/>