<?xml version="1.0" encoding="UTF-8"?>

<!-- generated on 2025-11-01 21:45:49 by Eclipse SUMO netedit Version 1.24.0
-->

<routes xmlns:xsi="http://www.w3.org/2001/XMLSchema-instance" xsi:noNamespaceSchemaLocation="http://sumo.dlr.de/xsd/routes_file.xsd">
    <!-- Vehicles, persons and containers (sorted by depart) -->
    <flow id="f_0" begin="0.00" from="E1" to="E10" end="3600.00" vehsPerHour="1800"/>
</routes>
