<?xml version="1.0" encoding="UTF-8"?>

<!-- generated on 2025-11-01 21:41:37 by Eclipse SUMO netedit Version 1.24.0
<neteditConfiguration xmlns:xsi="http://www.w3.org/2001/XMLSchema-instance" xsi:noNamespaceSchemaLocation="http://sumo.dlr.de/xsd/neteditConfiguration.xsd">

    <input>
        <sumocfg-file value="C:\Users\Abdul\Downloads\sumo\demo\demo.sumocfg"/>
        <sumo-net-file value="C:\Users\Abdul\Downloads\sumo\demo\demo.net.xml"/>
    </input>

    <output>
        <output-file value="C:\Users\Abdul\Downloads\sumo\demo\demo.net.xml"/>
    </output>

    <processing>
        <geometry.min-radius.fix.railways value="false"/>
        <geometry.avoid-overlap value="false"/>
        <geometry.max-grade.fix value="false"/>
        <offset.disable-normalization value="true"/>
        <lefthand value="1"/>
    </processing>

    <junctions>
        <no-internal-links value="false"/>
        <no-turnarounds value="true"/>
        <junctions.corner-detail value="5"/>
        <junctions.limit-turn-speed value="5.50"/>
        <rectangular-lane-cut value="0"/>
    </junctions>

    <pedestrian>
        <walkingareas value="0"/>
    </pedestrian>

    <netedit>
        <ignore.additionalelements value="0"/>
        <ignore.routeelements value="0"/>
    </netedit>

</neteditConfiguration>
-->

<net version="1.20" junctionCornerDetail="5" lefthand="true" limitTurnSpeed="5.50" avoidOverlap="0" xmlns:xsi="http://www.w3.org/2001/XMLSchema-instance" xsi:noNamespaceSchemaLocation="http://sumo.dlr.de/xsd/net_file.xsd">

    <location netOffset="0.00,0.00" convBoundary="-68.38,-331.31,234.47,12.66" origBoundary="-10000000000.00,-10000000000.00,10000000000.00,10000000000.00" projParameter="!"/>

    <edge id=":clusterJ0_J1_0" function="internal">
        <lane id=":clusterJ0_J1_0_0" index="0" allow="bicycle" speed="13.89" length="1.44" width="1.00" shape="156.31,-119.50 155.97,-119.75 155.76,-119.96 155.58,-120.19 155.30,-120.52"/>
    </edge>
    <edge id=":clusterJ0_J1_1" function="internal">
        <lane id=":clusterJ0_J1_1_0" index="0" allow="bicycle" speed="13.89" length="2.16" width="1.00" shape="152.20,-117.69 152.68,-117.16 153.02,-116.81 153.41,-116.51 153.99,-116.10"/>
        <lane id=":clusterJ0_J1_1_1" index="1" disallow="pedestrian" speed="13.89" length="2.16" shape="153.76,-119.11 154.13,-118.68 154.40,-118.40 154.71,-118.16 155.18,-117.84"/>
    </edge>
    <edge id=":clusterJ0_J1_c0" function="crossing" crossingEdges="E23.92 E24">
        <lane id=":clusterJ0_J1_c0_0" index="0" allow="pedestrian" speed="2.78" length="5.09" width="4.00" shape="152.06,-116.82 154.92,-121.03" outlineShape="153.66,115.61 156.63,119.98 156.45,121.57 157.14,122.20 157.71,121.57 156.61,119.91 153.27,122.15 150.41,117.95 150.34,116.02 151.85,117.33 152.18,116.96 152.45,116.66 152.69,116.44 152.94,116.23 153.27,116.00"/>
    </edge>
    <edge id=":clusterJ0_J1_w0" function="walkingarea">
        <lane id=":clusterJ0_J1_w0_0" index="0" allow="pedestrian" speed="2.78" length="1.64" width="4.00" shape="155.67,-120.85 157.14,-122.20 157.71,-121.57 156.61,-119.91 156.36,-120.08 156.21,-120.22 156.09,-120.34 155.98,-120.48 155.85,-120.64"/>
    </edge>
    <edge id=":clusterJ0_J1_w1" function="walkingarea">
        <lane id=":clusterJ0_J1_w1_0" index="0" allow="pedestrian" speed="2.78" length="1.98" width="4.00" shape="153.71,-115.69 152.58,-114.04 152.05,-114.40 151.67,-114.68 151.37,-114.92 151.08,-115.19 150.76,-115.54 150.34,-116.02 151.85,-117.33 152.18,-116.96 152.45,-116.66 152.69,-116.44 152.94,-116.23 153.27,-116.00"/>
    </edge>
    <edge id=":clusterJ0_J1_J2_clusterJ12_J8_#4more_0" function="internal">
        <lane id=":clusterJ0_J1_J2_clusterJ12_J8_#4more_0_0" index="0" allow="bicycle" speed="5.35" length="0.14" width="1.00" shape="35.38,-230.83 35.29,-230.73"/>
    </edge>
    <edge id=":clusterJ0_J1_J2_clusterJ12_J8_#4more_1" function="internal">
        <lane id=":clusterJ0_J1_J2_clusterJ12_J8_#4more_1_0" index="0" allow="bicycle" speed="13.89" length="13.66" width="1.00" shape="35.38,-230.83 28.10,-219.27"/>
    </edge>
    <edge id=":clusterJ0_J1_J2_clusterJ12_J8_#4more_2" function="internal">
        <lane id=":clusterJ0_J1_J2_clusterJ12_J8_#4more_2_0" index="0" allow="bicycle" speed="8.20" length="7.60" width="1.00" shape="35.38,-230.83 34.41,-227.34 35.12,-223.43"/>
    </edge>
    <edge id=":clusterJ0_J1_J2_clusterJ12_J8_#4more_3" function="internal">
        <lane id=":clusterJ0_J1_J2_clusterJ12_J8_#4more_3_0" index="0" disallow="pedestrian" speed="6.78" length="1.25" shape="37.12,-229.66 36.29,-228.73"/>
    </edge>
    <edge id=":clusterJ0_J1_J2_clusterJ12_J8_#4more_4" function="internal">
        <lane id=":clusterJ0_J1_J2_clusterJ12_J8_#4more_4_0" index="0" disallow="pedestrian" speed="13.89" length="13.66" shape="37.12,-229.66 29.85,-218.10"/>
    </edge>
    <edge id=":clusterJ0_J1_J2_clusterJ12_J8_#4more_5" function="internal">
        <lane id=":clusterJ0_J1_J2_clusterJ12_J8_#4more_5_0" index="0" disallow="pedestrian" speed="7.55" length="3.46" shape="37.12,-229.66 36.42,-226.93 36.56,-226.31"/>
    </edge>
    <edge id=":clusterJ0_J1_J2_clusterJ12_J8_#4more_20" function="internal">
        <lane id=":clusterJ0_J1_J2_clusterJ12_J8_#4more_20_0" index="0" allow="bicycle" speed="5.35" length="6.28" width="1.00" shape="35.29,-230.73 34.21,-229.52 32.90,-228.90 31.44,-228.96 29.85,-229.69"/>
    </edge>
    <edge id=":clusterJ0_J1_J2_clusterJ12_J8_#4more_21" function="internal">
        <lane id=":clusterJ0_J1_J2_clusterJ12_J8_#4more_21_0" index="0" allow="bicycle" speed="8.20" length="8.44" width="1.00" shape="35.12,-223.43 35.15,-223.29 37.17,-219.48 40.04,-216.71"/>
    </edge>
    <edge id=":clusterJ0_J1_J2_clusterJ12_J8_#4more_22" function="internal">
        <lane id=":clusterJ0_J1_J2_clusterJ12_J8_#4more_22_0" index="0" disallow="pedestrian" speed="6.78" length="8.51" shape="36.29,-228.73 35.34,-227.67 33.34,-226.72 31.13,-226.81 28.71,-227.93"/>
    </edge>
    <edge id=":clusterJ0_J1_J2_clusterJ12_J8_#4more_23" function="internal">
        <lane id=":clusterJ0_J1_J2_clusterJ12_J8_#4more_23_0" index="0" disallow="pedestrian" speed="7.55" length="9.33" shape="36.56,-226.31 37.12,-223.73 38.83,-220.70 41.15,-218.49"/>
    </edge>
    <edge id=":clusterJ0_J1_J2_clusterJ12_J8_#4more_6" function="internal">
        <lane id=":clusterJ0_J1_J2_clusterJ12_J8_#4more_6_0" index="0" allow="bicycle" speed="5.61" length="2.90" width="1.00" shape="42.32,-220.34 40.94,-221.56 40.55,-222.55"/>
    </edge>
    <edge id=":clusterJ0_J1_J2_clusterJ12_J8_#4more_7" function="internal">
        <lane id=":clusterJ0_J1_J2_clusterJ12_J8_#4more_7_0" index="0" allow="bicycle" speed="13.89" length="15.59" width="1.00" shape="42.32,-220.34 29.85,-229.69"/>
    </edge>
    <edge id=":clusterJ0_J1_J2_clusterJ12_J8_#4more_8" function="internal">
        <lane id=":clusterJ0_J1_J2_clusterJ12_J8_#4more_8_0" index="0" allow="bicycle" speed="8.40" length="8.74" width="1.00" shape="42.32,-220.34 37.86,-222.50 34.12,-223.03"/>
    </edge>
    <edge id=":clusterJ0_J1_J2_clusterJ12_J8_#4more_9" function="internal">
        <lane id=":clusterJ0_J1_J2_clusterJ12_J8_#4more_9_0" index="0" allow="bicycle" speed="3.25" length="2.40" width="1.00" shape="42.32,-220.34 40.84,-220.30 40.05,-219.82"/>
    </edge>
    <edge id=":clusterJ0_J1_J2_clusterJ12_J8_#4more_24" function="internal">
        <lane id=":clusterJ0_J1_J2_clusterJ12_J8_#4more_24_0" index="0" allow="bicycle" speed="5.61" length="4.43" width="1.00" shape="40.55,-222.55 40.36,-223.03 40.56,-224.74 41.56,-226.69"/>
    </edge>
    <edge id=":clusterJ0_J1_J2_clusterJ12_J8_#4more_25" function="internal">
        <lane id=":clusterJ0_J1_J2_clusterJ12_J8_#4more_25_0" index="0" allow="bicycle" speed="8.40" length="7.32" width="1.00" shape="34.12,-223.03 34.01,-223.05 30.75,-221.97 28.10,-219.27"/>
    </edge>
    <edge id=":clusterJ0_J1_J2_clusterJ12_J8_#4more_26" function="internal">
        <lane id=":clusterJ0_J1_J2_clusterJ12_J8_#4more_26_0" index="0" allow="bicycle" speed="3.25" length="2.40" width="1.00" shape="40.05,-219.82 39.96,-218.91 40.57,-217.56"/>
    </edge>
    <edge id=":clusterJ0_J1_J2_clusterJ12_J8_#4more_10" function="internal">
        <lane id=":clusterJ0_J1_J2_clusterJ12_J8_#4more_10_0" index="0" allow="bicycle" speed="5.52" length="0.36" width="1.00" shape="34.26,-215.15 34.50,-215.42"/>
    </edge>
    <edge id=":clusterJ0_J1_J2_clusterJ12_J8_#4more_11" function="internal">
        <lane id=":clusterJ0_J1_J2_clusterJ12_J8_#4more_11_0" index="0" allow="bicycle" speed="13.89" length="13.65" width="1.00" shape="34.26,-215.15 41.56,-226.69"/>
    </edge>
    <edge id=":clusterJ0_J1_J2_clusterJ12_J8_#4more_12" function="internal">
        <lane id=":clusterJ0_J1_J2_clusterJ12_J8_#4more_12_0" index="0" allow="bicycle" speed="8.34" length="7.85" width="1.00" shape="34.26,-215.15 35.32,-218.75 34.69,-222.79"/>
    </edge>
    <edge id=":clusterJ0_J1_J2_clusterJ12_J8_#4more_13" function="internal">
        <lane id=":clusterJ0_J1_J2_clusterJ12_J8_#4more_13_0" index="0" disallow="pedestrian" speed="6.91" length="1.34" shape="32.51,-216.32 33.40,-217.32"/>
    </edge>
    <edge id=":clusterJ0_J1_J2_clusterJ12_J8_#4more_14" function="internal">
        <lane id=":clusterJ0_J1_J2_clusterJ12_J8_#4more_14_0" index="0" disallow="pedestrian" speed="13.89" length="13.66" shape="32.51,-216.32 39.81,-227.86"/>
    </edge>
    <edge id=":clusterJ0_J1_J2_clusterJ12_J8_#4more_15" function="internal">
        <lane id=":clusterJ0_J1_J2_clusterJ12_J8_#4more_15_0" index="0" disallow="pedestrian" speed="7.69" length="3.61" shape="32.51,-216.32 33.30,-219.16 33.18,-219.81"/>
    </edge>
    <edge id=":clusterJ0_J1_J2_clusterJ12_J8_#4more_27" function="internal">
        <lane id=":clusterJ0_J1_J2_clusterJ12_J8_#4more_27_0" index="0" allow="bicycle" speed="5.52" length="6.41" width="1.00" shape="34.50,-215.42 35.54,-216.62 36.93,-217.37 38.43,-217.40 40.04,-216.71"/>
    </edge>
    <edge id=":clusterJ0_J1_J2_clusterJ12_J8_#4more_28" function="internal">
        <lane id=":clusterJ0_J1_J2_clusterJ12_J8_#4more_28_0" index="0" allow="bicycle" speed="8.34" length="8.55" width="1.00" shape="34.69,-222.79 34.67,-222.91 32.72,-226.83 29.85,-229.69"/>
    </edge>
    <edge id=":clusterJ0_J1_J2_clusterJ12_J8_#4more_29" function="internal">
        <lane id=":clusterJ0_J1_J2_clusterJ12_J8_#4more_29_0" index="0" disallow="pedestrian" speed="6.91" length="8.75" shape="33.40,-217.32 34.40,-218.46 36.47,-219.54 38.72,-219.55 41.15,-218.49"/>
    </edge>
    <edge id=":clusterJ0_J1_J2_clusterJ12_J8_#4more_30" function="internal">
        <lane id=":clusterJ0_J1_J2_clusterJ12_J8_#4more_30_0" index="0" disallow="pedestrian" speed="7.69" length="9.55" shape="33.18,-219.81 32.69,-222.49 31.05,-225.63 28.71,-227.93"/>
    </edge>
    <edge id=":clusterJ0_J1_J2_clusterJ12_J8_#4more_16" function="internal">
        <lane id=":clusterJ0_J1_J2_clusterJ12_J8_#4more_16_0" index="0" allow="bicycle" speed="5.78" length="3.44" width="1.00" shape="27.45,-225.99 28.84,-224.69 29.37,-223.24"/>
    </edge>
    <edge id=":clusterJ0_J1_J2_clusterJ12_J8_#4more_17" function="internal">
        <lane id=":clusterJ0_J1_J2_clusterJ12_J8_#4more_17_0" index="0" allow="bicycle" speed="13.89" length="15.64" width="1.00" shape="27.45,-225.99 40.04,-216.71"/>
    </edge>
    <edge id=":clusterJ0_J1_J2_clusterJ12_J8_#4more_18" function="internal">
        <lane id=":clusterJ0_J1_J2_clusterJ12_J8_#4more_18_0" index="0" allow="bicycle" speed="8.30" length="9.08" width="1.00" shape="27.45,-225.99 31.89,-223.71 35.71,-223.06 35.92,-223.12"/>
    </edge>
    <edge id=":clusterJ0_J1_J2_clusterJ12_J8_#4more_19" function="internal">
        <lane id=":clusterJ0_J1_J2_clusterJ12_J8_#4more_19_0" index="0" allow="bicycle" speed="3.30" length="2.49" width="1.00" shape="27.45,-225.99 28.99,-226.01 29.81,-226.50"/>
    </edge>
    <edge id=":clusterJ0_J1_J2_clusterJ12_J8_#4more_31" function="internal">
        <lane id=":clusterJ0_J1_J2_clusterJ12_J8_#4more_31_0" index="0" allow="bicycle" speed="5.78" length="4.25" width="1.00" shape="29.37,-223.24 29.40,-223.14 29.16,-221.33 28.10,-219.27"/>
    </edge>
    <edge id=":clusterJ0_J1_J2_clusterJ12_J8_#4more_32" function="internal">
        <lane id=":clusterJ0_J1_J2_clusterJ12_J8_#4more_32_0" index="0" allow="bicycle" speed="8.30" length="6.87" width="1.00" shape="35.92,-223.12 38.94,-224.05 41.56,-226.69"/>
    </edge>
    <edge id=":clusterJ0_J1_J2_clusterJ12_J8_#4more_33" function="internal">
        <lane id=":clusterJ0_J1_J2_clusterJ12_J8_#4more_33_0" index="0" allow="bicycle" speed="3.30" length="2.49" width="1.00" shape="29.81,-226.50 29.92,-227.44 29.31,-228.85"/>
    </edge>
    <edge id=":clusterJ0_J1_J2_clusterJ12_J8_#4more_c0" function="crossing" crossingEdges="E16 E19">
        <lane id=":clusterJ0_J1_J2_clusterJ12_J8_#4more_c0_0" index="0" allow="pedestrian" speed="2.78" length="8.44" width="4.00" shape="40.86,-224.75 33.85,-229.45" outlineShape="41.97,226.41 34.97,231.11 34.88,231.16 34.97,231.11 34.29,230.28 33.57,229.72 32.79,229.42 31.95,229.39 31.25,229.57 32.74,227.79 39.74,223.09 41.27,222.06 41.14,222.25 40.88,223.14 40.93,224.13 41.30,225.22"/>
    </edge>
    <edge id=":clusterJ0_J1_J2_clusterJ12_J8_#4more_c1" function="crossing" crossingEdges="E4 E12">
        <lane id=":clusterJ0_J1_J2_clusterJ12_J8_#4more_c1_0" index="0" allow="pedestrian" speed="2.78" length="5.28" width="4.00" shape="38.08,-217.35 40.89,-221.82" outlineShape="39.72,216.20 42.63,220.84 41.70,221.46 41.14,222.25 40.88,223.14 40.93,224.13 41.00,224.33 39.19,222.89 36.38,218.42 35.81,216.14 36.21,216.47 37.04,216.85 37.91,216.95 38.82,216.76"/>
    </edge>
    <edge id=":clusterJ0_J1_J2_clusterJ12_J8_#4more_c2" function="crossing" crossingEdges="E2 E1">
        <lane id=":clusterJ0_J1_J2_clusterJ12_J8_#4more_c2_0" index="0" allow="pedestrian" speed="2.78" length="8.41" width="4.00" shape="28.80,-221.21 35.79,-216.53" outlineShape="27.69,219.55 34.67,214.87 35.42,215.81 36.21,216.47 37.04,216.85 37.91,216.95 38.82,216.76 39.65,216.35 28.72,223.68 28.88,223.03 28.81,221.98 28.41,220.82"/>
    </edge>
    <edge id=":clusterJ0_J1_J2_clusterJ12_J8_#4more_c3" function="crossing" crossingEdges="E10 E15">
        <lane id=":clusterJ0_J1_J2_clusterJ12_J8_#4more_c3_0" index="0" allow="pedestrian" speed="2.78" length="5.42" width="4.00" shape="31.80,-229.03 28.85,-224.48" outlineShape="30.12,230.11 27.17,225.57 27.12,225.48 27.18,225.57 28.07,224.83 28.64,223.99 28.88,223.03 28.81,221.98 30.53,223.39 33.48,227.94 34.14,230.16 33.57,229.72 32.79,229.42 31.95,229.39 31.07,229.62"/>
    </edge>
    <edge id=":clusterJ0_J1_J2_clusterJ12_J8_#4more_w0" function="walkingarea">
        <lane id=":clusterJ0_J1_J2_clusterJ12_J8_#4more_w0_0" index="0" allow="pedestrian" speed="2.78" length="2.86" width="4.00" shape="30.12,-230.11 31.21,-231.79 33.30,-232.22 34.97,-231.11 34.29,-230.28 33.57,-229.72 32.79,-229.42 31.95,-229.39 31.07,-229.62"/>
    </edge>
    <edge id=":clusterJ0_J1_J2_clusterJ12_J8_#4more_w1" function="walkingarea">
        <lane id=":clusterJ0_J1_J2_clusterJ12_J8_#4more_w1_0" index="0" allow="pedestrian" speed="2.78" length="3.33" width="4.00" shape="41.97,-226.41 43.63,-225.30 43.65,-222.45 42.59,-220.76 41.70,-221.46 41.14,-222.25 40.88,-223.14 40.93,-224.13 41.30,-225.22"/>
    </edge>
    <edge id=":clusterJ0_J1_J2_clusterJ12_J8_#4more_w2" function="walkingarea">
        <lane id=":clusterJ0_J1_J2_clusterJ12_J8_#4more_w2_0" index="0" allow="pedestrian" speed="2.78" length="3.07" width="4.00" shape="39.77,-216.29 38.70,-214.60 36.34,-213.75 34.67,-214.87 35.42,-215.81 36.21,-216.47 37.04,-216.85 37.91,-216.95 38.82,-216.76"/>
    </edge>
    <edge id=":clusterJ0_J1_J2_clusterJ12_J8_#4more_w3" function="walkingarea">
        <lane id=":clusterJ0_J1_J2_clusterJ12_J8_#4more_w3_0" index="0" allow="pedestrian" speed="2.78" length="3.55" width="4.00" shape="27.69,-219.55 26.03,-220.67 26.09,-223.90 27.18,-225.57 28.07,-224.83 28.64,-223.99 28.88,-223.03 28.81,-221.98 28.41,-220.82"/>
    </edge>
    <edge id=":clusterJ11_J12_J3_J4_#2more_0" function="internal">
        <lane id=":clusterJ11_J12_J3_J4_#2more_0_0" index="0" allow="bicycle" speed="5.73" length="6.57" width="1.00" shape="96.55,-191.33 95.32,-189.95 93.96,-189.27 92.49,-189.27 90.90,-189.96"/>
    </edge>
    <edge id=":clusterJ11_J12_J3_J4_#2more_1" function="internal">
        <lane id=":clusterJ11_J12_J3_J4_#2more_1_0" index="0" disallow="pedestrian" speed="6.77" length="10.08" shape="97.46,-190.71 96.26,-188.24 96.17,-185.99 97.19,-183.95 99.32,-182.13"/>
    </edge>
    <edge id=":clusterJ11_J12_J3_J4_#2more_2" function="internal">
        <lane id=":clusterJ11_J12_J3_J4_#2more_2_0" index="0" allow="bicycle" speed="5.31" length="6.51" width="1.00" shape="100.45,-183.89 99.09,-185.06 98.45,-186.38 98.52,-187.84 99.31,-189.45"/>
    </edge>
    <edge id=":clusterJ11_J12_J3_J4_#2more_3" function="internal">
        <lane id=":clusterJ11_J12_J3_J4_#2more_3_0" index="0" allow="bicycle" speed="13.89" length="11.32" width="1.00" shape="100.45,-183.89 90.90,-189.96"/>
    </edge>
    <edge id=":clusterJ11_J12_J3_J4_#2more_4" function="internal">
        <lane id=":clusterJ11_J12_J3_J4_#2more_4_0" index="0" allow="bicycle" speed="3.21" length="4.66" width="1.00" shape="100.45,-183.89 99.01,-183.86 98.24,-183.41 98.14,-182.52 98.72,-181.20"/>
    </edge>
    <edge id=":clusterJ11_J12_J3_J4_#2more_5" function="internal">
        <lane id=":clusterJ11_J12_J3_J4_#2more_5_0" index="0" allow="bicycle" speed="13.89" length="11.27" width="1.00" shape="88.53,-186.18 98.18,-180.36"/>
    </edge>
    <edge id=":clusterJ11_J12_J3_J4_#2more_6" function="internal">
        <lane id=":clusterJ11_J12_J3_J4_#2more_6_0" index="0" allow="bicycle" speed="7.50" length="6.69" width="1.00" shape="88.53,-186.18 91.45,-184.97 94.22,-185.11 94.87,-185.48"/>
    </edge>
    <edge id=":clusterJ11_J12_J3_J4_#2more_7" function="internal">
        <lane id=":clusterJ11_J12_J3_J4_#2more_7_0" index="0" disallow="pedestrian" speed="13.89" length="11.29" shape="89.65,-187.96 99.32,-182.13"/>
    </edge>
    <edge id=":clusterJ11_J12_J3_J4_#2more_8" function="internal">
        <lane id=":clusterJ11_J12_J3_J4_#2more_8_0" index="0" allow="bicycle" speed="7.50" length="6.03" width="1.00" shape="94.87,-185.48 96.84,-186.60 99.31,-189.45"/>
    </edge>
    <edge id=":clusterJ11_J12_J3_J4_#2more_c0" function="crossing" crossingEdges="E11 E7">
        <lane id=":clusterJ11_J12_J3_J4_#2more_c0_0" index="0" allow="pedestrian" speed="2.78" length="4.34" width="4.00" shape="98.60,-187.51 95.01,-189.95" outlineShape="99.72,189.17 96.13,191.61 96.05,191.66 96.13,191.61 95.42,190.73 94.66,190.12 93.86,189.78 93.00,189.71 92.33,189.86 93.88,188.30 97.47,185.86 99.69,185.19 99.28,185.70 98.97,186.48 98.94,187.32 99.19,188.22"/>
    </edge>
    <edge id=":clusterJ11_J12_J3_J4_#2more_c1" function="crossing" crossingEdges="E23 E24.53">
        <lane id=":clusterJ11_J12_J3_J4_#2more_c1_0" index="0" allow="pedestrian" speed="2.78" length="5.19" width="4.00" shape="96.23,-181.02 99.03,-185.39" outlineShape="97.91,179.94 100.72,184.31 100.77,184.39 100.72,184.31 99.86,184.98 99.28,185.70 98.97,186.48 98.94,187.32 99.12,187.96 97.35,186.47 94.55,182.10 97.91,179.94 96.83,178.25 87.20,184.06 88.27,185.75 94.55,182.10"/>
    </edge>
    <edge id=":clusterJ11_J12_J3_J4_#2more_w0" function="walkingarea">
        <lane id=":clusterJ11_J12_J3_J4_#2more_w0_0" index="0" allow="pedestrian" speed="2.78" length="3.17" width="4.00" shape="91.16,-190.38 92.22,-192.08 94.48,-192.73 96.13,-191.61 95.42,-190.73 94.66,-190.12 93.86,-189.78 93.00,-189.71 92.11,-189.91"/>
    </edge>
    <edge id=":clusterJ11_J12_J3_J4_#2more_w1" function="walkingarea">
        <lane id=":clusterJ11_J12_J3_J4_#2more_w1_0" index="0" allow="pedestrian" speed="2.78" length="2.88" width="4.00" shape="99.72,-189.17 101.38,-188.04 101.80,-185.99 100.72,-184.31 99.86,-184.98 99.28,-185.70 98.97,-186.48 98.94,-187.32 99.19,-188.22"/>
    </edge>
    <edge id=":clusterJ11_J12_J3_J4_#2more_w2" function="walkingarea">
        <lane id=":clusterJ11_J12_J3_J4_#2more_w2_0" index="0" allow="pedestrian" speed="2.78" length="7.61" width="4.00" shape="94.55,-182.10 97.91,-179.94 96.83,-178.25 87.20,-184.06 88.27,-185.75"/>
    </edge>
    <edge id=":clusterJ13_J14_J15_J16_#2more_0" function="internal">
        <lane id=":clusterJ13_J14_J15_J16_#2more_0_0" index="0" allow="bicycle" speed="13.89" length="11.40" width="1.00" shape="171.92,-108.66 162.65,-115.29"/>
    </edge>
    <edge id=":clusterJ13_J14_J15_J16_#2more_1" function="internal">
        <lane id=":clusterJ13_J14_J15_J16_#2more_1_0" index="0" allow="bicycle" speed="7.41" length="0.37" width="1.00" shape="171.92,-108.66 171.59,-108.81"/>
    </edge>
    <edge id=":clusterJ13_J14_J15_J16_#2more_2" function="internal">
        <lane id=":clusterJ13_J14_J15_J16_#2more_2_0" index="0" allow="bicycle" speed="3.24" length="0.27" width="1.00" shape="171.92,-108.66 171.65,-108.65"/>
    </edge>
    <edge id=":clusterJ13_J14_J15_J16_#2more_10" function="internal">
        <lane id=":clusterJ13_J14_J15_J16_#2more_10_0" index="0" allow="bicycle" speed="7.41" length="12.21" width="1.00" shape="171.59,-108.81 168.94,-109.98 166.15,-109.97 163.57,-108.60 161.19,-105.89"/>
    </edge>
    <edge id=":clusterJ13_J14_J15_J16_#2more_11" function="internal">
        <lane id=":clusterJ13_J14_J15_J16_#2more_11_0" index="0" allow="bicycle" speed="3.24" length="4.50" width="1.00" shape="171.65,-108.65 170.45,-108.64 169.66,-108.18 169.56,-107.27 170.14,-105.92"/>
    </edge>
    <edge id=":clusterJ13_J14_J15_J16_#2more_3" function="internal">
        <lane id=":clusterJ13_J14_J15_J16_#2more_3_0" index="0" allow="bicycle" speed="5.36" length="6.42" width="1.00" shape="164.06,-103.95 165.24,-105.26 166.56,-105.88 168.01,-105.82 169.60,-105.08"/>
    </edge>
    <edge id=":clusterJ13_J14_J15_J16_#2more_4" function="internal">
        <lane id=":clusterJ13_J14_J15_J16_#2more_4_0" index="0" allow="bicycle" speed="7.47" length="13.03" width="1.00" shape="164.06,-103.95 165.79,-107.35 166.13,-110.38 165.09,-113.02 162.65,-115.29"/>
    </edge>
    <edge id=":clusterJ13_J14_J15_J16_#2more_5" function="internal">
        <lane id=":clusterJ13_J14_J15_J16_#2more_5_0" index="0" allow="bicycle" speed="5.48" length="1.96" width="1.00" shape="160.31,-111.77 161.61,-110.55 161.67,-110.38"/>
    </edge>
    <edge id=":clusterJ13_J14_J15_J16_#2more_6" function="internal">
        <lane id=":clusterJ13_J14_J15_J16_#2more_6_0" index="0" allow="bicycle" speed="13.89" length="11.45" width="1.00" shape="160.31,-111.77 169.60,-105.08"/>
    </edge>
    <edge id=":clusterJ13_J14_J15_J16_#2more_7" function="internal">
        <lane id=":clusterJ13_J14_J15_J16_#2more_7_0" index="0" disallow="pedestrian" speed="6.64" length="1.36" shape="161.47,-113.52 162.44,-112.56"/>
    </edge>
    <edge id=":clusterJ13_J14_J15_J16_#2more_8" function="internal">
        <lane id=":clusterJ13_J14_J15_J16_#2more_8_0" index="0" disallow="pedestrian" speed="13.89" length="11.42" shape="161.47,-113.52 170.74,-106.84"/>
    </edge>
    <edge id=":clusterJ13_J14_J15_J16_#2more_9" function="internal">
        <lane id=":clusterJ13_J14_J15_J16_#2more_9_0" index="0" allow="bicycle" speed="2.70" length="1.04" width="1.00" shape="162.09,-114.42 162.56,-114.43 162.81,-114.58 162.84,-114.86"/>
    </edge>
    <edge id=":clusterJ13_J14_J15_J16_#2more_12" function="internal">
        <lane id=":clusterJ13_J14_J15_J16_#2more_12_0" index="0" allow="bicycle" speed="5.48" length="4.81" width="1.00" shape="161.67,-110.38 162.18,-109.16 162.05,-107.61 161.19,-105.89"/>
    </edge>
    <edge id=":clusterJ13_J14_J15_J16_#2more_13" function="internal">
        <lane id=":clusterJ13_J14_J15_J16_#2more_13_0" index="0" disallow="pedestrian" speed="6.64" length="8.01" shape="162.44,-112.56 163.10,-111.91 163.74,-110.00 163.41,-107.79 162.10,-105.27"/>
    </edge>
    <edge id=":clusterJ13_J14_J15_J16_#2more_14" function="internal">
        <lane id=":clusterJ13_J14_J15_J16_#2more_14_0" index="0" allow="bicycle" speed="2.70" length="0.46" width="1.00" shape="162.84,-114.86 162.65,-115.29"/>
    </edge>
    <edge id=":clusterJ13_J14_J15_J16_#2more_c0" function="crossing" crossingEdges="E25 E0">
        <lane id=":clusterJ13_J14_J15_J16_#2more_c0_0" index="0" allow="pedestrian" speed="2.78" length="4.46" width="4.00" shape="161.89,-107.83 165.60,-105.33" outlineShape="160.78,106.17 164.48,103.67 164.56,103.62 164.48,103.68 165.15,104.50 165.88,105.06 166.66,105.36 167.49,105.39 168.20,105.21 166.71,106.99 163.01,109.48 161.05,110.39 161.40,109.89 161.66,109.06 161.65,108.16 161.35,107.20"/>
    </edge>
    <edge id=":clusterJ13_J14_J15_J16_#2more_w0" function="walkingarea">
        <lane id=":clusterJ13_J14_J15_J16_#2more_w0_0" index="0" allow="pedestrian" speed="2.78" length="11.39" width="2.00" shape="162.93,-115.71 164.04,-117.37 173.29,-110.75 172.20,-109.07"/>
    </edge>
    <edge id=":clusterJ13_J14_J15_J16_#2more_w1" function="walkingarea">
        <lane id=":clusterJ13_J14_J15_J16_#2more_w1_0" index="0" allow="pedestrian" speed="2.78" length="3.10" width="4.00" shape="169.32,-104.66 168.23,-102.98 166.14,-102.56 164.48,-103.68 165.15,-104.50 165.88,-105.06 166.66,-105.36 167.49,-105.39 168.38,-105.16"/>
    </edge>
    <edge id=":clusterJ13_J14_J15_J16_#2more_w2" function="walkingarea">
        <lane id=":clusterJ13_J14_J15_J16_#2more_w2_0" index="0" allow="pedestrian" speed="2.78" length="3.22" width="4.00" shape="160.78,-106.17 159.12,-107.28 158.91,-109.69 160.04,-111.34 160.85,-110.66 161.40,-109.89 161.66,-109.06 161.65,-108.16 161.35,-107.20"/>
    </edge>
    <edge id=":clusterJ24_J27_J33_J35_0" function="internal">
        <lane id=":clusterJ24_J27_J33_J35_0_0" index="0" allow="bicycle" speed="13.89" length="4.02" width="1.00" shape="209.53,-83.98 206.29,-86.37"/>
    </edge>
    <edge id=":clusterJ24_J27_J33_J35_1" function="internal">
        <lane id=":clusterJ24_J27_J33_J35_1_0" index="0" allow="bicycle" speed="13.89" length="4.04" width="1.00" shape="203.94,-82.74 207.19,-80.34"/>
        <lane id=":clusterJ24_J27_J33_J35_1_1" index="1" disallow="pedestrian" speed="13.89" length="4.04" shape="205.08,-84.50 208.32,-82.11"/>
    </edge>
    <edge id=":clusterJ24_J27_J33_J35_c0" function="crossing" crossingEdges="E3 E5">
        <lane id=":clusterJ24_J27_J33_J35_c0_0" index="0" allow="pedestrian" speed="2.78" length="5.34" width="4.00" shape="205.23,-81.00 208.12,-85.49" outlineShape="206.92,79.92 209.80,84.41 209.85,84.50 209.79,84.41 206.43,86.57 203.55,82.08 206.92,79.92 205.84,78.23 202.58,80.64 203.67,82.32 203.55,82.08"/>
    </edge>
    <edge id=":clusterJ24_J27_J33_J35_w0" function="walkingarea">
        <lane id=":clusterJ24_J27_J33_J35_w0_0" index="0" allow="pedestrian" speed="2.78" length="2.87" width="4.00" shape="206.57,-86.79 207.65,-88.47 210.88,-86.09 209.79,-84.41 206.43,-86.57"/>
    </edge>
    <edge id=":clusterJ24_J27_J33_J35_w1" function="walkingarea">
        <lane id=":clusterJ24_J27_J33_J35_w1_0" index="0" allow="pedestrian" speed="2.78" length="2.82" width="4.00" shape="203.55,-82.08 206.92,-79.92 205.84,-78.23 202.58,-80.64 203.67,-82.32"/>
    </edge>
    <edge id=":clusterJ2_J3_0" function="internal">
        <lane id=":clusterJ2_J3_0_0" index="0" allow="bicycle" speed="13.89" length="4.05" width="1.00" shape="140.46,-157.24 137.52,-160.03"/>
    </edge>
    <edge id=":clusterJ2_J3_1" function="internal">
        <lane id=":clusterJ2_J3_1_0" index="0" allow="bicycle" speed="13.89" length="4.10" width="1.00" shape="134.56,-156.91 137.60,-154.12"/>
        <lane id=":clusterJ2_J3_1_1" index="1" disallow="pedestrian" speed="13.89" length="4.10" shape="136.01,-158.43 139.02,-155.67"/>
    </edge>
    <edge id=":clusterJ2_J3_c0" function="crossing" crossingEdges="E23.48 E24.11">
        <lane id=":clusterJ2_J3_c0_0" index="0" allow="pedestrian" speed="2.78" length="5.26" width="4.00" shape="135.79,-155.11 139.35,-158.98" outlineShape="137.26,153.75 140.82,157.62 140.87,157.72 140.78,157.62 137.87,160.39 134.32,156.46"/>
    </edge>
    <edge id=":clusterJ2_J3_w0" function="walkingarea">
        <lane id=":clusterJ2_J3_w0_0" index="0" allow="pedestrian" speed="2.78" length="2.84" width="4.00" shape="137.87,-160.39 139.25,-161.84 142.16,-159.07 140.78,-157.62 137.88,-160.33"/>
    </edge>
    <edge id=":clusterJ2_J3_w1" function="walkingarea">
        <lane id=":clusterJ2_J3_w1_0" index="0" allow="pedestrian" speed="2.78" length="2.92" width="4.00" shape="134.32,-156.46 137.26,-153.76 135.91,-152.28 132.85,-155.09 134.20,-156.56"/>
    </edge>

    <edge id="E0" from="J21" to="clusterJ13_J14_J15_J16_#2more" priority="-1" spreadType="center" shape="86.55,12.66 164.95,-103.48">
        <lane id="E0_0" index="0" allow="pedestrian" speed="13.89" length="140.02" width="2.00" shape="86.96,12.94 165.31,-103.12"/>
        <lane id="E0_1" index="1" allow="bicycle" speed="13.89" length="140.02" width="1.00" shape="85.72,12.10 164.06,-103.95"/>
    </edge>
    <edge id="E1" from="J7" to="clusterJ0_J1_J2_clusterJ12_J8_#4more" priority="-1" spreadType="center" shape="-63.12,-70.85 33.82,-215.57">
        <lane id="E1_0" index="0" allow="pedestrian" speed="13.89" length="174.08" width="2.00" shape="-61.38,-69.68 35.50,-214.31"/>
        <lane id="E1_1" index="1" allow="bicycle" speed="13.89" length="174.08" width="1.00" shape="-62.62,-70.52 34.26,-215.15"/>