<?xml version="1.0" encoding="UTF-8"?>

<!-- generated on 2025-11-01 20:41:35 by Eclipse SUMO netedit Version 1.24.0
<neteditConfiguration xmlns:xsi="http://www.w3.org/2001/XMLSchema-instance" xsi:noNamespaceSchemaLocation="http://sumo.dlr.de/xsd/neteditConfiguration.xsd">

    <input>
        <sumocfg-file value="C:\Users\Abdul\Downloads\sumo\demo\demo.sumocfg"/>
        <sumo-net-file value="C:\Users\Abdul\Downloads\sumo\demo\demo.net.xml"/>
    </input>

    <output>
        <output-file value="C:\Users\Abdul\Downloads\sumo\demo\demo.net.xml"/>
    </output>

    <processing>
        <geometry.min-radius.fix.railways value="false"/>
        <geometry.avoid-overlap value="false"/>
        <geometry.max-grade.fix value="false"/>
        <offset.disable-normalization value="true"/>
        <lefthand value="1"/>
    </processing>

    <junctions>
        <no-turnarounds value="true"/>
        <junctions.corner-detail value="5"/>
        <junctions.limit-turn-speed value="5.50"/>
        <rectangular-lane-cut value="0"/>
    </junctions>

    <pedestrian>
        <walkingareas value="0"/>
    </pedestrian>

    <netedit>
        <ignore.additionalelements value="0"/>
        <ignore.routeelements value="0"/>
    </netedit>

</neteditConfiguration>
-->

<net version="1.20" junctionCornerDetail="5" lefthand="true" limitTurnSpeed="5.50" avoidOverlap="0" xmlns:xsi="http://www.w3.org/2001/XMLSchema-instance" xsi:noNamespaceSchemaLocation="http://sumo.dlr.de/xsd/net_file.xsd">

    <location netOffset="0.00,0.00" convBoundary="-68.26,-331.31,231.88,12.66" origBoundary="-10000000000.00,-10000000000.00,10000000000.00,10000000000.00" projParameter="!"/>

    <edge id=":clusterJ0_J1_J2_clusterJ12_J8_#4more_0" function="internal">
        <lane id=":clusterJ0_J1_J2_clusterJ12_J8_#4more_0_0" index="0" allow="bicycle" speed="5.35" length="6.42" width="1.00" shape="35.38,-230.83 34.21,-229.52 32.90,-228.90 31.44,-228.96 29.85,-229.69"/>
    </edge>
    <edge id=":clusterJ0_J1_J2_clusterJ12_J8_#4more_1" function="internal">
        <lane id=":clusterJ0_J1_J2_clusterJ12_J8_#4more_1_0" index="0" allow="bicycle" speed="13.89" length="13.66" width="1.00" shape="35.38,-230.83 28.10,-219.27"/>
    </edge>
    <edge id=":clusterJ0_J1_J2_clusterJ12_J8_#4more_2" function="internal">
        <lane id=":clusterJ0_J1_J2_clusterJ12_J8_#4more_2_0" index="0" allow="bicycle" speed="8.19" length="7.52" width="1.00" shape="35.38,-230.83 34.40,-227.34 35.08,-223.50"/>
    </edge>
    <edge id=":clusterJ0_J1_J2_clusterJ12_J8_#4more_3" function="internal">
        <lane id=":clusterJ0_J1_J2_clusterJ12_J8_#4more_3_0" index="0" disallow="pedestrian" speed="6.78" length="1.25" shape="37.12,-229.66 36.29,-228.73"/>
    </edge>
    <edge id=":clusterJ0_J1_J2_clusterJ12_J8_#4more_4" function="internal">
        <lane id=":clusterJ0_J1_J2_clusterJ12_J8_#4more_4_0" index="0" disallow="pedestrian" speed="13.89" length="13.66" shape="37.12,-229.66 29.85,-218.11"/>
    </edge>
    <edge id=":clusterJ0_J1_J2_clusterJ12_J8_#4more_5" function="internal">
        <lane id=":clusterJ0_J1_J2_clusterJ12_J8_#4more_5_0" index="0" disallow="pedestrian" speed="7.53" length="3.41" shape="37.12,-229.66 36.41,-226.94 36.54,-226.36"/>
    </edge>
    <edge id=":clusterJ0_J1_J2_clusterJ12_J8_#4more_20" function="internal">
        <lane id=":clusterJ0_J1_J2_clusterJ12_J8_#4more_20_0" index="0" allow="bicycle" speed="8.19" length="8.44" width="1.00" shape="35.08,-223.50 35.11,-223.31 37.11,-219.52 39.95,-216.76"/>
    </edge>
    <edge id=":clusterJ0_J1_J2_clusterJ12_J8_#4more_21" function="internal">
        <lane id=":clusterJ0_J1_J2_clusterJ12_J8_#4more_21_0" index="0" disallow="pedestrian" speed="6.78" length="8.51" shape="36.29,-228.73 35.34,-227.67 33.34,-226.72 31.13,-226.81 28.71,-227.93"/>
    </edge>
    <edge id=":clusterJ0_J1_J2_clusterJ12_J8_#4more_22" function="internal">
        <lane id=":clusterJ0_J1_J2_clusterJ12_J8_#4more_22_0" index="0" disallow="pedestrian" speed="7.53" length="9.30" shape="36.54,-226.36 37.09,-223.75 38.76,-220.74 41.07,-218.54"/>
    </edge>
    <edge id=":clusterJ0_J1_J2_clusterJ12_J8_#4more_6" function="internal">
        <lane id=":clusterJ0_J1_J2_clusterJ12_J8_#4more_6_0" index="0" allow="bicycle" speed="5.58" length="7.25" width="1.00" shape="42.23,-220.39 40.90,-221.59 40.34,-223.04 40.56,-224.74 41.56,-226.69"/>
    </edge>
    <edge id=":clusterJ0_J1_J2_clusterJ12_J8_#4more_7" function="internal">
        <lane id=":clusterJ0_J1_J2_clusterJ12_J8_#4more_7_0" index="0" allow="bicycle" speed="13.89" length="15.49" width="1.00" shape="42.23,-220.39 29.85,-229.69"/>
    </edge>
    <edge id=":clusterJ0_J1_J2_clusterJ12_J8_#4more_8" function="internal">
        <lane id=":clusterJ0_J1_J2_clusterJ12_J8_#4more_8_0" index="0" allow="bicycle" speed="8.37" length="15.97" width="1.00" shape="42.23,-220.39 37.81,-222.53 33.98,-223.06 30.75,-221.97 28.10,-219.27"/>
    </edge>
    <edge id=":clusterJ0_J1_J2_clusterJ12_J8_#4more_9" function="internal">
        <lane id=":clusterJ0_J1_J2_clusterJ12_J8_#4more_9_0" index="0" allow="bicycle" speed="3.25" length="4.79" width="1.00" shape="42.23,-220.39 40.75,-220.35 39.97,-219.87 39.88,-218.96 40.48,-217.61"/>
    </edge>
    <edge id=":clusterJ0_J1_J2_clusterJ12_J8_#4more_10" function="internal">
        <lane id=":clusterJ0_J1_J2_clusterJ12_J8_#4more_10_0" index="0" allow="bicycle" speed="5.54" length="6.82" width="1.00" shape="34.13,-215.24 35.41,-216.71 36.80,-217.45 38.32,-217.47 39.95,-216.76"/>
    </edge>
    <edge id=":clusterJ0_J1_J2_clusterJ12_J8_#4more_11" function="internal">
        <lane id=":clusterJ0_J1_J2_clusterJ12_J8_#4more_11_0" index="0" allow="bicycle" speed="13.89" length="13.65" width="1.00" shape="34.13,-215.24 41.56,-226.69"/>
    </edge>
    <edge id=":clusterJ0_J1_J2_clusterJ12_J8_#4more_12" function="internal">
        <lane id=":clusterJ0_J1_J2_clusterJ12_J8_#4more_12_0" index="0" allow="bicycle" speed="8.31" length="7.66" width="1.00" shape="34.13,-215.24 35.20,-218.83 34.63,-222.70"/>
    </edge>
    <edge id=":clusterJ0_J1_J2_clusterJ12_J8_#4more_13" function="internal">
        <lane id=":clusterJ0_J1_J2_clusterJ12_J8_#4more_13_0" index="0" disallow="pedestrian" speed="6.92" length="1.44" shape="32.38,-216.41 33.33,-217.49"/>
    </edge>
    <edge id=":clusterJ0_J1_J2_clusterJ12_J8_#4more_14" function="internal">
        <lane id=":clusterJ0_J1_J2_clusterJ12_J8_#4more_14_0" index="0" disallow="pedestrian" speed="13.89" length="13.65" shape="32.38,-216.41 39.81,-227.86"/>
    </edge>
    <edge id=":clusterJ0_J1_J2_clusterJ12_J8_#4more_15" function="internal">
        <lane id=":clusterJ0_J1_J2_clusterJ12_J8_#4more_15_0" index="0" disallow="pedestrian" speed="7.65" length="3.34" shape="32.38,-216.41 33.18,-219.25 33.12,-219.64"/>
    </edge>
    <edge id=":clusterJ0_J1_J2_clusterJ12_J8_#4more_23" function="internal">
        <lane id=":clusterJ0_J1_J2_clusterJ12_J8_#4more_23_0" index="0" allow="bicycle" speed="8.31" length="8.61" width="1.00" shape="34.63,-222.70 34.59,-222.97 32.68,-226.86 29.85,-229.69"/>
    </edge>
    <edge id=":clusterJ0_J1_J2_clusterJ12_J8_#4more_24" function="internal">
        <lane id=":clusterJ0_J1_J2_clusterJ12_J8_#4more_24_0" index="0" disallow="pedestrian" speed="6.92" length="8.70" shape="33.33,-217.49 34.27,-218.55 36.34,-219.62 38.61,-219.62 41.07,-218.54"/>
    </edge>
    <edge id=":clusterJ0_J1_J2_clusterJ12_J8_#4more_25" function="internal">
        <lane id=":clusterJ0_J1_J2_clusterJ12_J8_#4more_25_0" index="0" disallow="pedestrian" speed="7.65" length="9.69" shape="33.12,-219.64 32.61,-222.54 31.01,-225.65 28.71,-227.93"/>
    </edge>
    <edge id=":clusterJ0_J1_J2_clusterJ12_J8_#4more_16" function="internal">
        <lane id=":clusterJ0_J1_J2_clusterJ12_J8_#4more_16_0" index="0" allow="bicycle" speed="5.78" length="7.69" width="1.00" shape="27.45,-225.99 28.83,-224.69 29.40,-223.14 29.16,-221.33 28.10,-219.27"/>
    </edge>
    <edge id=":clusterJ0_J1_J2_clusterJ12_J8_#4more_17" function="internal">
        <lane id=":clusterJ0_J1_J2_clusterJ12_J8_#4more_17_0" index="0" allow="bicycle" speed="13.89" length="15.54" width="1.00" shape="27.45,-225.99 39.95,-216.76"/>
    </edge>
    <edge id=":clusterJ0_J1_J2_clusterJ12_J8_#4more_18" function="internal">
        <lane id=":clusterJ0_J1_J2_clusterJ12_J8_#4more_18_0" index="0" allow="bicycle" speed="8.30" length="15.96" width="1.00" shape="27.45,-225.99 31.89,-223.71 35.71,-223.06 38.94,-224.05 41.56,-226.69"/>
    </edge>
    <edge id=":clusterJ0_J1_J2_clusterJ12_J8_#4more_19" function="internal">
        <lane id=":clusterJ0_J1_J2_clusterJ12_J8_#4more_19_0" index="0" allow="bicycle" speed="3.30" length="4.98" width="1.00" shape="27.45,-225.99 28.99,-226.01 29.81,-226.50 29.92,-227.44 29.31,-228.85"/>
    </edge>
    <edge id=":clusterJ11_J12_J3_J4_#2more_0" function="internal">
        <lane id=":clusterJ11_J12_J3_J4_#2more_0_0" index="0" allow="bicycle" speed="5.73" length="6.57" width="1.00" shape="96.55,-191.33 95.32,-189.95 93.96,-189.27 92.49,-189.27 90.90,-189.96"/>
    </edge>
    <edge id=":clusterJ11_J12_J3_J4_#2more_1" function="internal">
        <lane id=":clusterJ11_J12_J3_J4_#2more_1_0" index="0" disallow="pedestrian" speed="6.77" length="10.08" shape="97.46,-190.71 96.26,-188.24 96.17,-185.99 97.19,-183.95 99.32,-182.13"/>
    </edge>
    <edge id=":clusterJ11_J12_J3_J4_#2more_2" function="internal">
        <lane id=":clusterJ11_J12_J3_J4_#2more_2_0" index="0" allow="bicycle" speed="5.31" length="6.51" width="1.00" shape="100.45,-183.89 99.09,-185.06 98.45,-186.38 98.52,-187.84 99.31,-189.45"/>
    </edge>
    <edge id=":clusterJ11_J12_J3_J4_#2more_3" function="internal">
        <lane id=":clusterJ11_J12_J3_J4_#2more_3_0" index="0" allow="bicycle" speed="13.89" length="11.32" width="1.00" shape="100.45,-183.89 90.90,-189.96"/>
    </edge>
    <edge id=":clusterJ11_J12_J3_J4_#2more_4" function="internal">
        <lane id=":clusterJ11_J12_J3_J4_#2more_4_0" index="0" allow="bicycle" speed="3.21" length="1.66" width="1.00" shape="100.45,-183.89 99.01,-183.86 98.81,-183.75"/>
    </edge>
    <edge id=":clusterJ11_J12_J3_J4_#2more_8" function="internal">
        <lane id=":clusterJ11_J12_J3_J4_#2more_8_0" index="0" allow="bicycle" speed="3.21" length="3.00" width="1.00" shape="98.81,-183.75 98.24,-183.41 98.14,-182.52 98.72,-181.20"/>
    </edge>
    <edge id=":clusterJ11_J12_J3_J4_#2more_5" function="internal">
        <lane id=":clusterJ11_J12_J3_J4_#2more_5_0" index="0" allow="bicycle" speed="13.89" length="11.27" width="1.00" shape="88.53,-186.18 98.18,-180.36"/>
    </edge>
    <edge id=":clusterJ11_J12_J3_J4_#2more_6" function="internal">
        <lane id=":clusterJ11_J12_J3_J4_#2more_6_0" index="0" allow="bicycle" speed="7.50" length="6.69" width="1.00" shape="88.53,-186.18 91.45,-184.97 94.22,-185.11 94.87,-185.48"/>
    </edge>
    <edge id=":clusterJ11_J12_J3_J4_#2more_7" function="internal">
        <lane id=":clusterJ11_J12_J3_J4_#2more_7_0" index="0" disallow="pedestrian" speed="13.89" length="11.29" shape="89.65,-187.96 99.32,-182.13"/>
    </edge>
    <edge id=":clusterJ11_J12_J3_J4_#2more_9" function="internal">
        <lane id=":clusterJ11_J12_J3_J4_#2more_9_0" index="0" allow="bicycle" speed="7.50" length="6.03" width="1.00" shape="94.87,-185.48 96.84,-186.60 99.31,-189.45"/>
    </edge>
    <edge id=":clusterJ13_J14_J15_J16_#2more_0" function="internal">
        <lane id=":clusterJ13_J14_J15_J16_#2more_0_0" index="0" allow="bicycle" speed="13.89" length="11.47" width="1.00" shape="171.98,-108.61 162.65,-115.29"/>
    </edge>
    <edge id=":clusterJ13_J14_J15_J16_#2more_1" function="internal">
        <lane id=":clusterJ13_J14_J15_J16_#2more_1_0" index="0" allow="bicycle" speed="7.40" length="0.39" width="1.00" shape="171.98,-108.61 171.62,-108.77"/>
    </edge>
    <edge id=":clusterJ13_J14_J15_J16_#2more_2" function="internal">
        <lane id=":clusterJ13_J14_J15_J16_#2more_2_0" index="0" allow="bicycle" speed="3.24" length="0.27" width="1.00" shape="171.98,-108.61 171.70,-108.61"/>
    </edge>
    <edge id=":clusterJ13_J14_J15_J16_#2more_10" function="internal">
        <lane id=":clusterJ13_J14_J15_J16_#2more_10_0" index="0" allow="bicycle" speed="7.40" length="12.27" width="1.00" shape="171.62,-108.77 168.98,-109.98 166.19,-109.99 163.59,-108.62 161.19,-105.89"/>
    </edge>
    <edge id=":clusterJ13_J14_J15_J16_#2more_11" function="internal">
        <lane id=":clusterJ13_J14_J15_J16_#2more_11_0" index="0" allow="bicycle" speed="3.24" length="4.50" width="1.00" shape="171.70,-108.61 170.50,-108.61 169.71,-108.15 169.60,-107.25 170.17,-105.89"/>
    </edge>
    <edge id=":clusterJ13_J14_J15_J16_#2more_3" function="internal">
        <lane id=":clusterJ13_J14_J15_J16_#2more_3_0" index="0" allow="bicycle" speed="5.31" length="6.36" width="1.00" shape="164.12,-104.04 165.28,-105.31 166.58,-105.90 168.03,-105.82 169.61,-105.06"/>
    </edge>
    <edge id=":clusterJ13_J14_J15_J16_#2more_4" function="internal">
        <lane id=":clusterJ13_J14_J15_J16_#2more_4_0" index="0" allow="bicycle" speed="7.45" length="12.94" width="1.00" shape="164.12,-104.04 165.82,-107.40 166.15,-110.40 165.09,-113.03 162.65,-115.29"/>
    </edge>
    <edge id=":clusterJ13_J14_J15_J16_#2more_5" function="internal">
        <lane id=":clusterJ13_J14_J15_J16_#2more_5_0" index="0" allow="bicycle" speed="5.48" length="6.76" width="1.00" shape="160.31,-111.77 161.61,-110.55 162.19,-109.16 162.05,-107.61 161.19,-105.89"/>
    </edge>
    <edge id=":clusterJ13_J14_J15_J16_#2more_6" function="internal">
        <lane id=":clusterJ13_J14_J15_J16_#2more_6_0" index="0" allow="bicycle" speed="13.89" length="11.47" width="1.00" shape="160.31,-111.77 169.61,-105.06"/>
    </edge>
    <edge id=":clusterJ13_J14_J15_J16_#2more_7" function="internal">
        <lane id=":clusterJ13_J14_J15_J16_#2more_7_0" index="0" disallow="pedestrian" speed="6.64" length="1.37" shape="161.47,-113.52 162.45,-112.56"/>
    </edge>
    <edge id=":clusterJ13_J14_J15_J16_#2more_8" function="internal">
        <lane id=":clusterJ13_J14_J15_J16_#2more_8_0" index="0" disallow="pedestrian" speed="13.89" length="11.47" shape="161.47,-113.52 170.78,-106.80"/>
    </edge>
    <edge id=":clusterJ13_J14_J15_J16_#2more_9" function="internal">
        <lane id=":clusterJ13_J14_J15_J16_#2more_9_0" index="0" allow="bicycle" speed="2.70" length="1.04" width="1.00" shape="162.09,-114.42 162.56,-114.43 162.81,-114.58 162.84,-114.86"/>
    </edge>
    <edge id=":clusterJ13_J14_J15_J16_#2more_12" function="internal">
        <lane id=":clusterJ13_J14_J15_J16_#2more_12_0" index="0" disallow="pedestrian" speed="6.64" length="8.00" shape="162.45,-112.56 163.10,-111.91 163.74,-110.01 163.41,-107.79 162.11,-105.28"/>
    </edge>
    <edge id=":clusterJ13_J14_J15_J16_#2more_13" function="internal">
        <lane id=":clusterJ13_J14_J15_J16_#2more_13_0" index="0" allow="bicycle" speed="2.70" length="0.46" width="1.00" shape="162.84,-114.86 162.65,-115.29"/>
    </edge>

    <edge id="E0" from="J21" to="clusterJ13_J14_J15_J16_#2more" priority="-1" spreadType="center" shape="86.55,12.66 164.95,-103.48">
        <lane id="E0_0" index="0" allow="pedestrian" speed="13.89" length="140.13" width="2.00" shape="86.96,12.94 165.36,-103.20"/>
        <lane id="E0_1" index="1" allow="bicycle" speed="13.89" length="140.13" width="1.00" shape="85.72,12.10 164.12,-104.04"/>
    </edge>
    <edge id="E1" from="J7" to="clusterJ0_J1_J2_clusterJ12_J8_#4more" priority="-1" spreadType="center" shape="-63.18,-70.69 33.74,-215.74">
        <lane id="E1_0" index="0" allow="pedestrian" speed="13.89" length="174.25" width="2.00" shape="-61.43,-69.52 35.37,-214.41"/>
        <lane id="E1_1" index="1" allow="bicycle" speed="13.89" length="174.25" width="1.00" shape="-62.68,-70.36 34.13,-215.24"/>
        <lane id="E1_2" index="2" disallow="pedestrian" speed="13.89" length="174.25" shape="-64.43,-71.52 32.38,-216.41"/>
    </edge>
    <edge id="E10" from="clusterJ0_J1_J2_clusterJ12_J8_#4more" to="J19" priority="-1" spreadType="center" shape="32.07,-227.54 -3.35,-250.50">
        <lane id="E10_0" index="0" allow="pedestrian" speed="13.89" length="39.18" width="2.00" shape="30.67,-230.95 -2.21,-252.26"/>
        <lane id="E10_1" index="1" allow="bicycle" speed="13.89" length="39.18" width="1.00" shape="29.85,-229.69 -3.02,-251.00"/>
        <lane id="E10_2" index="2" disallow="pedestrian" speed="13.89" length="39.18" shape="28.71,-227.93 -4.17,-249.24"/>
    </edge>
    <edge id="E11" from="clusterJ11_J12_J3_J4_#2more" to="J9" priority="-1" spreadType="center" shape="99.05,-187.29 168.35,-289.28">
        <lane id="E11_0" index="0" allow="pedestrian" speed="13.89" length="121.38" width="2.00" shape="100.55,-188.61 168.76,-289.00"/>
        <lane id="E11_1" index="1" allow="bicycle" speed="13.89" length="121.38" width="1.00" shape="99.31,-189.45 167.52,-289.84"/>
    </edge>
    <edge id="E12" from="clusterJ11_J12_J3_J4_#2more" to="clusterJ0_J1_J2_clusterJ12_J8_#4more" priority="-1" spreadType="center" shape="93.07,-189.78 41.51,-222.02">
        <lane id="E12_0" index="0" allow="pedestrian" speed="13.89" length="57.39" width="2.00" shape="91.69,-191.23 43.03,-221.66"/>
        <lane id="E12_1" index="1" allow="bicycle" speed="13.89" length="57.39" width="1.00" shape="90.90,-189.96 42.23,-220.39"/>
    </edge>
    <edge id="E15" from="J28" to="clusterJ0_J1_J2_clusterJ12_J8_#4more" priority="-1" spreadType="center" shape="-6.25,-246.89 29.08,-223.73">
        <lane id="E15_0" index="0" allow="pedestrian" speed="13.89" length="39.65" width="2.00" shape="-6.52,-246.47 26.64,-224.73"/>
        <lane id="E15_1" index="1" allow="bicycle" speed="13.89" length="39.65" width="1.00" shape="-5.70,-247.73 27.45,-225.99"/>
    </edge>
    <edge id="E16" from="clusterJ0_J1_J2_clusterJ12_J8_#4more" to="J32" priority="-1" spreadType="center" shape="39.95,-225.37 108.61,-327.75">
        <lane id="E16_0" index="0" allow="pedestrian" speed="13.89" length="121.28" width="2.00" shape="42.80,-225.85 110.35,-326.58"/>
        <lane id="E16_1" index="1" allow="bicycle" speed="13.89" length="121.28" width="1.00" shape="41.56,-226.69 109.11,-327.42"/>
        <lane id="E16_2" index="2" disallow="pedestrian" speed="13.89" length="121.28" shape="39.81,-227.86 107.36,-328.59"/>
    </edge>
    <edge id="E19" from="J36" to="clusterJ0_J1_J2_clusterJ12_J8_#4more" priority="-1" spreadType="center" shape="103.49,-331.31 34.87,-228.99">
        <lane id="E19_0" index="0" allow="pedestrian" speed="13.89" length="121.39" width="2.00" shape="101.75,-332.48 34.14,-231.66"/>
        <lane id="E19_1" index="1" allow="bicycle" speed="13.89" length="121.39" width="1.00" shape="102.99,-331.64 35.38,-230.83"/>
        <lane id="E19_2" index="2" disallow="pedestrian" speed="13.89" length="121.39" shape="104.74,-330.47 37.12,-229.66"/>
    </edge>
    <edge id="E2" from="clusterJ0_J1_J2_clusterJ12_J8_#4more" to="J10" priority="-1" spreadType="center" shape="28.60,-218.94 -68.26,-74.24">
        <lane id="E2_0" index="0" allow="pedestrian" speed="13.89" length="174.13" width="2.00" shape="26.85,-220.11 -70.01,-75.41"/>
        <lane id="E2_1" index="1" allow="bicycle" speed="13.89" length="174.13" width="1.00" shape="28.10,-219.27 -68.76,-74.57"/>
        <lane id="E2_2" index="2" disallow="pedestrian" speed="13.89" length="174.13" shape="29.85,-218.11 -67.01,-73.41"/>
    </edge>
    <edge id="E23" from="clusterJ11_J12_J3_J4_#2more" to="clusterJ13_J14_J15_J16_#2more" priority="-1" spreadType="center" shape="95.97,-182.49 134.49,-157.79 139.65,-153.06 143.59,-143.66 145.14,-136.92 146.26,-130.61 147.67,-125.56 149.75,-121.44 153.38,-117.25 162.91,-110.71">
        <lane id="E23_0" index="0" allow="pedestrian" speed="13.89" length="97.46" width="2.00" shape="97.37,-179.10 133.20,-156.12 137.89,-151.82 141.58,-143.01 143.08,-136.50 144.21,-130.14 145.70,-124.80 147.99,-120.26 151.97,-115.67 159.48,-110.52"/>
        <lane id="E23_1" index="1" allow="bicycle" speed="13.89" length="97.46" width="1.00" shape="98.18,-180.36 134.12,-157.31 139.15,-152.71 143.02,-143.48 144.55,-136.80 145.67,-130.48 147.11,-125.34 149.25,-121.10 152.98,-116.80 160.31,-111.77"/>
        <lane id="E23_2" index="2" disallow="pedestrian" speed="13.89" length="97.46" shape="99.32,-182.13 135.41,-158.98 140.91,-153.94 145.02,-144.12 146.61,-137.22 147.72,-130.94 149.08,-126.10 151.01,-122.28 154.39,-118.38 161.47,-113.52"/>
    </edge>
    <edge id="E24" from="clusterJ13_J14_J15_J16_#2more" to="clusterJ11_J12_J3_J4_#2more" priority="-1" spreadType="center" shape="165.51,-114.59 156.74,-120.42 153.34,-124.14 152.01,-127.12 150.59,-132.43 149.48,-138.90 147.84,-145.54 143.84,-155.40 137.94,-161.01 98.65,-186.23">
        <lane id="E24_0" index="0" allow="pedestrian" speed="13.89" length="97.66" width="2.00" shape="163.48,-116.54 157.07,-120.80 153.76,-124.42 152.48,-127.29 151.08,-132.54 149.97,-139.00 148.32,-145.69 144.26,-155.69 138.25,-161.41 101.26,-185.15"/>
        <lane id="E24_1" index="1" allow="bicycle" speed="13.89" length="97.66" width="1.00" shape="162.65,-115.29 156.08,-119.65 152.49,-123.58 151.06,-126.78 149.61,-132.22 148.50,-138.70 146.89,-145.23 142.99,-154.82 137.32,-160.22 100.45,-183.89"/>
    </edge>
    <edge id="E25" from="clusterJ13_J14_J15_J16_#2more" to="J23" priority="-1" spreadType="center" shape="161.63,-106.36 83.07,10.37">
        <lane id="E25_0" index="0" allow="pedestrian" speed="13.89" length="140.07" width="2.00" shape="159.95,-106.73 81.74,9.48"/>
        <lane id="E25_1" index="1" disallow="pedestrian" speed="13.89" length="140.07" shape="162.11,-105.28 83.90,10.93"/>
    </edge>
    <edge id="E28" from="clusterJ13_J14_J15_J16_#2more" to="J33" priority="-1" spreadType="center" shape="168.99,-106.19 229.05,-66.23">
        <lane id="E28_0" index="0" allow="pedestrian" speed="13.89" length="70.99" width="2.00" shape="168.78,-103.81 227.89,-64.48"/>
        <lane id="E28_1" index="1" allow="bicycle" speed="13.89" length="70.99" width="1.00" shape="169.61,-105.06 228.72,-65.73"/>
        <lane id="E28_2" index="2" disallow="pedestrian" speed="13.89" length="70.99" shape="170.78,-106.80 229.88,-67.48"/>
    </edge>
    <edge id="E29" from="J35" to="clusterJ13_J14_J15_J16_#2more" priority="-1" spreadType="center" shape="231.88,-69.93 171.69,-110.00">
        <lane id="E29_0" index="0" allow="pedestrian" speed="13.89" length="71.30" width="2.00" shape="232.16,-70.35 172.81,-109.86"/>
        <lane id="E29_1" index="1" allow="bicycle" speed="13.89" length="71.30" width="1.00" shape="231.33,-69.10 171.98,-108.61"/>
    </edge>
    <edge id="E4" from="clusterJ0_J1_J2_clusterJ12_J8_#4more" to="clusterJ11_J12_J3_J4_#2more" priority="-1" spreadType="center" shape="38.75,-218.23 90.45,-185.68">
        <lane id="E4_0" index="0" allow="pedestrian" speed="13.89" length="57.41" width="2.00" shape="39.15,-215.49 87.74,-184.91"/>
        <lane id="E4_1" index="1" allow="bicycle" speed="13.89" length="57.41" width="1.00" shape="39.95,-216.76 88.53,-186.18"/>
        <lane id="E4_2" index="2" disallow="pedestrian" speed="13.89" length="57.41" shape="41.07,-218.54 89.65,-187.96"/>
    </edge>
    <edge id="E7" from="J5" to="clusterJ11_J12_J3_J4_#2more" priority="-1" spreadType="center" shape="164.85,-291.53 95.67,-189.86">
        <lane id="E7_0" index="0" allow="pedestrian" speed="13.89" length="121.27" width="2.00" shape="163.53,-292.43 95.31,-192.17"/>
        <lane id="E7_1" index="1" disallow="pedestrian" speed="13.89" length="121.27" shape="165.68,-290.97 97.46,-190.71"/>
    </edge>

    <junction id="J10" type="dead_end" x="-68.26" y="-74.24" incLanes="E2_0 E2_1 E2_2" intLanes="" shape="-70.84,-75.96 -65.68,-72.52"/>
    <junction id="J19" type="dead_end" x="-3.35" y="-250.50" incLanes="E10_0 E10_1 E10_2" intLanes="" shape="-1.66,-253.10 -5.04,-247.90"/>
    <junction id="J21" type="dead_end" x="86.55" y="12.66" incLanes="" intLanes="" shape="85.31,11.82 87.79,13.50"/>
    <junction id="J23" type="dead_end" x="83.07" y="10.37" incLanes="E25_0 E25_1" intLanes="" shape="80.91,8.92 85.23,11.82"/>
    <junction id="J28" type="dead_end" x="-6.25" y="-246.89" incLanes="" intLanes="" shape="-5.43,-248.14 -7.07,-245.64"/>
    <junction id="J32" type="dead_end" x="108.61" y="-327.75" incLanes="E16_0 E16_1 E16_2" intLanes="" shape="111.18,-326.02 106.04,-329.48"/>
    <junction id="J33" type="dead_end" x="229.05" y="-66.23" incLanes="E28_0 E28_1 E28_2" intLanes="" shape="227.33,-63.65 230.77,-68.81"/>
    <junction id="J35" type="dead_end" x="231.88" y="-69.93" incLanes="" intLanes="" shape="231.05,-68.68 232.71,-71.18"/>
    <junction id="J36" type="dead_end" x="103.49" y="-331.31" incLanes="" intLanes="" shape="106.06,-329.58 100.92,-333.04"/>
    <junction id="J5" type="dead_end" x="164.85" y="-291.53" incLanes="" intLanes="" shape="167.00,-290.07 162.70,-292.99"/>
    <junction id="J7" type="dead_end" x="-63.18" y="-70.69" incLanes="" intLanes="" shape="-65.76,-72.41 -60.60,-68.97"/>
    <junction id="J9" type="dead_end" x="168.35" y="-289.28" incLanes="E11_0 E11_1" intLanes="" shape="169.59,-288.44 167.11,-290.12"/>
    <junction id="clusterJ0_J1_J2_clusterJ12_J8_#4more" type="priority" x="34.82" y="-222.57" incLanes="E19_0 E19_1 E19_2 E12_0 E12_1 E1_0 E1_1 E1_2 E15_0 E15_1" intLanes=":clusterJ0_J1_J2_clusterJ12_J8_#4more_0_0 :clusterJ0_J1_J2_clusterJ12_J8_#4more_1_0 :clusterJ0_J1_J2_clusterJ12_J8_#4more_20_0 :clusterJ0_J1_J2_clusterJ12_J8_#4more_21_0 :clusterJ0_J1_J2_clusterJ12_J8_#4more_4_0 :clusterJ0_J1_J2_clusterJ12_J8_#4more_22_0 :clusterJ0_J1_J2_clusterJ12_J8_#4more_6_0 :clusterJ0_J1_J2_clusterJ12_J8_#4more_7_0 :clusterJ0_J1_J2_clusterJ12_J8_#4more_8_0 :clusterJ0_J1_J2_clusterJ12_J8_#4more_9_0 :clusterJ0_J1_J2_clusterJ12_J8_#4more_10_0 :clusterJ0_J1_J2_clusterJ12_J8_#4more_11_0 :clusterJ0_J1_J2_clusterJ12_J8_#4more_23_0 :clusterJ0_J1_J2_clusterJ12_J8_#4more_24_0 :clusterJ0_J1_J2_clusterJ12_J8_#4more_14_0 :clusterJ0_J1_J2_clusterJ12_J8_#4more_25_0 :clusterJ0_J1_J2_clusterJ12_J8_#4more_16_0 :clusterJ0_J1_J2_clusterJ12_J8_#4more_17_0 :clusterJ0_J1_J2_clusterJ12_J8_#4more_18_0 :clusterJ0_J1_J2_clusterJ12_J8_#4more_19_0" shape="33.30,-232.22 43.63,-225.30 43.03,-224.10 42.95,-223.60 43.01,-223.17 43.21,-222.80 43.57,-222.50 38.62,-214.65 37.76,-214.93 37.35,-214.87 36.96,-214.66 36.58,-214.33 36.21,-213.85 26.02,-220.66 26.71,-222.04 26.80,-222.61 26.73,-223.11 26.49,-223.54 26.09,-223.90 31.21,-231.79 32.00,-231.48 32.36,-231.49 32.70,-231.62 33.01,-231.86">
        <request index="0"  response="00000000000000000000" foes="00000001000010000000" cont="0"/>
        <request index="1"  response="00000000000000000000" foes="01111001000110001000" cont="0"/>
        <request index="2"  response="00000110110000010000" foes="01100111110110011000" cont="1"/>
        <request index="3"  response="00000000000000000110" foes="10001001000010000110" cont="1"/>
        <request index="4"  response="00000000000000000000" foes="01101001000110000100" cont="0"/>
        <request index="5"  response="00000110100000000000" foes="01000110101110000000" cont="1"/>
        <request index="6"  response="00000000100000000000" foes="01000000100000000000" cont="0"/>
        <request index="7"  response="00000101100000111111" foes="01000101100000111111" cont="0"/>
        <request index="8"  response="01111101100000110110" foes="01111101100000110110" cont="0"/>
        <request index="9"  response="00000010000000100000" foes="00000010000000100000" cont="0"/>
        <request index="10" response="00000000000000000000" foes="00100000000000000100" cont="0"/>
        <request index="11" response="00000000000000000000" foes="01100010000111100100" cont="0"/>
        <request index="12" response="00000100000000011111" foes="01100110000110011111" cont="1"/>
        <request index="13" response="00000001100000000000" foes="00100001101000100100" cont="1"/>
        <request index="14" response="00000000000000000000" foes="01100001000110100100" cont="0"/>
        <request index="15" response="00000000000000011010" foes="11100000000100011010" cont="1"/>
        <request index="16" response="00000000000000000010" foes="00000000000100000010" cont="0"/>
        <request index="17" response="00001111110000010110" foes="00001111110100010110" cont="0"/>
        <request index="18" response="00001101100011110110" foes="00001101100111110110" cont="0"/>
        <request index="19" response="00001000000000001000" foes="00001000000000001000" cont="0"/>
    </junction>
    <junction id="clusterJ11_J12_J3_J4_#2more" type="priority" x="95.48" y="-186.89" incLanes="E7_0 E7_1 E24_0 E24_1 E4_0 E4_1 E4_2" intLanes=":clusterJ11_J12_J3_J4_#2more_0_0 :clusterJ11_J12_J3_J4_#2more_1_0 :clusterJ11_J12_J3_J4_#2more_2_0 :clusterJ11_J12_J3_J4_#2more_3_0 :clusterJ11_J12_J3_J4_#2more_8_0 :clusterJ11_J12_J3_J4_#2more_5_0 :clusterJ11_J12_J3_J4_#2more_9_0 :clusterJ11_J12_J3_J4_#2more_7_0" shape="94.48,-192.73 101.38,-188.04 101.05,-187.27 101.06,-186.91 101.19,-186.58 101.43,-186.28 101.80,-185.99 96.83,-178.25 87.21,-184.06 92.22,-192.08 93.04,-191.80 93.42,-191.84 93.79,-192.02 94.14,-192.31">
        <request index="0" response="00001000" foes="00001000" cont="0"/>
        <request index="1" response="11001000" foes="11011000" cont="0"/>
        <request index="2" response="00000000" foes="01000000" cont="0"/>
        <request index="3" response="00000000" foes="01000011" cont="0"/>
        <request index="4" response="10000010" foes="10000010" cont="1"/>
        <request index="5" response="00000000" foes="00000000" cont="0"/>