<?xml version="1.0" encoding="UTF-8"?>

<!-- generated on 2025-11-01 19:58:06 by Eclipse SUMO netedit Version 1.24.0
<neteditConfiguration xmlns:xsi="http://www.w3.org/2001/XMLSchema-instance" xsi:noNamespaceSchemaLocation="http://sumo.dlr.de/xsd/neteditConfiguration.xsd">

    <input>
        <sumocfg-file value="C:\Users\Abdul\Downloads\sumo\demo\demo.sumocfg"/>
        <sumo-net-file value="C:\Users\Abdul\Downloads\sumo\demo\demo.net.xml"/>
    </input>

    <output>
        <output-file value="C:\Users\Abdul\Downloads\sumo\demo\demo.net.xml"/>
    </output>

    <processing>
        <geometry.min-radius.fix.railways value="false"/>
        <geometry.avoid-overlap value="false"/>
        <geometry.max-grade.fix value="false"/>
        <offset.disable-normalization value="true"/>
        <lefthand value="1"/>
    </processing>

    <junctions>
        <no-turnarounds value="true"/>
        <junctions.corner-detail value="5"/>
        <junctions.limit-turn-speed value="5.50"/>
        <rectangular-lane-cut value="0"/>
    </junctions>

    <pedestrian>
        <walkingareas value="0"/>
    </pedestrian>

    <netedit>
        <ignore.additionalelements value="0"/>
        <ignore.routeelements value="0"/>
    </netedit>

</neteditConfiguration>
-->

<net version="1.20" junctionCornerDetail="5" lefthand="true" limitTurnSpeed="5.50" avoidOverlap="0" xmlns:xsi="http://www.w3.org/2001/XMLSchema-instance" xsi:noNamespaceSchemaLocation="http://sumo.dlr.de/xsd/net_file.xsd">

    <location netOffset="0.00,0.00" convBoundary="-70.05,-331.98,231.61,12.56" origBoundary="-10000000000.00,-10000000000.00,10000000000.00,10000000000.00" projParameter="!"/>

    <edge id=":J1_0" function="internal">
        <lane id=":J1_0_0" index="0" allow="bicycle" speed="13.89" length="6.24" width="1.00" shape="45.81,-213.68 47.30,-212.57 48.22,-211.69 49.15,-210.82 50.65,-209.74"/>
    </edge>
    <edge id=":J1_1" function="internal">
        <lane id=":J1_1_0" index="0" disallow="pedestrian" speed="13.89" length="5.93" shape="46.42,-214.59 51.60,-211.70"/>
    </edge>
    <edge id=":clusterJ0_J13_J16_J17_#4more_0" function="internal">
        <lane id=":clusterJ0_J13_J16_J17_#4more_0_0" index="0" disallow="pedestrian" speed="5.74" length="6.58" shape="36.49,-228.76 35.08,-227.12 33.70,-226.19 32.36,-225.97 31.05,-226.46"/>
    </edge>
    <edge id=":clusterJ0_J13_J16_J17_#4more_1" function="internal">
        <lane id=":clusterJ0_J13_J16_J17_#4more_1_0" index="0" disallow="pedestrian" speed="13.89" length="11.13" shape="36.49,-228.76 30.57,-219.33"/>
    </edge>
    <edge id=":clusterJ0_J13_J16_J17_#4more_2" function="internal">
        <lane id=":clusterJ0_J13_J16_J17_#4more_2_0" index="0" disallow="pedestrian" speed="6.83" length="3.58" shape="36.49,-228.76 35.73,-226.48 35.87,-225.31"/>
    </edge>
    <edge id=":clusterJ0_J13_J16_J17_#4more_14" function="internal">
        <lane id=":clusterJ0_J13_J16_J17_#4more_14_0" index="0" disallow="pedestrian" speed="6.83" length="6.75" shape="35.87,-225.31 36.05,-223.85 37.21,-221.36 38.97,-219.54"/>
    </edge>
    <edge id=":clusterJ0_J13_J16_J17_#4more_3" function="internal">
        <lane id=":clusterJ0_J13_J16_J17_#4more_3_0" index="0" allow="bicycle" speed="4.90" length="5.62" width="1.00" shape="40.38,-221.44 39.39,-222.37 39.01,-223.50 39.24,-224.81 40.10,-226.32"/>
    </edge>
    <edge id=":clusterJ0_J13_J16_J17_#4more_4" function="internal">
        <lane id=":clusterJ0_J13_J16_J17_#4more_4_0" index="0" allow="bicycle" speed="13.89" length="10.56" width="1.00" shape="40.38,-221.44 31.65,-227.38"/>
    </edge>
    <edge id=":clusterJ0_J13_J16_J17_#4more_5" function="internal">
        <lane id=":clusterJ0_J13_J16_J17_#4more_5_0" index="0" allow="bicycle" speed="7.37" length="5.24" width="1.00" shape="40.38,-221.44 37.21,-222.95 35.49,-223.11"/>
    </edge>
    <edge id=":clusterJ0_J13_J16_J17_#4more_6" function="internal">
        <lane id=":clusterJ0_J13_J16_J17_#4more_6_0" index="0" allow="bicycle" speed="3.33" length="2.19" width="1.00" shape="40.38,-221.44 38.82,-221.49 38.26,-221.20"/>
    </edge>
    <edge id=":clusterJ0_J13_J16_J17_#4more_15" function="internal">
        <lane id=":clusterJ0_J13_J16_J17_#4more_15_0" index="0" allow="bicycle" speed="7.37" length="6.98" width="1.00" shape="35.49,-223.11 34.37,-223.21 31.86,-222.22 29.67,-219.96"/>
    </edge>
    <edge id=":clusterJ0_J13_J16_J17_#4more_16" function="internal">
        <lane id=":clusterJ0_J13_J16_J17_#4more_16_0" index="0" allow="bicycle" speed="3.33" length="2.86" width="1.00" shape="38.26,-221.20 37.97,-221.04 37.82,-220.09 38.36,-218.63"/>
    </edge>
    <edge id=":clusterJ0_J13_J16_J17_#4more_7" function="internal">
        <lane id=":clusterJ0_J13_J16_J17_#4more_7_0" index="0" disallow="pedestrian" speed="5.75" length="6.66" shape="33.43,-217.44 34.82,-219.05 36.21,-219.93 37.59,-220.10 38.97,-219.54"/>
    </edge>
    <edge id=":clusterJ0_J13_J16_J17_#4more_8" function="internal">
        <lane id=":clusterJ0_J13_J16_J17_#4more_8_0" index="0" disallow="pedestrian" speed="13.89" length="11.15" shape="33.43,-217.44 39.21,-226.97"/>
    </edge>
    <edge id=":clusterJ0_J13_J16_J17_#4more_9" function="internal">
        <lane id=":clusterJ0_J13_J16_J17_#4more_9_0" index="0" disallow="pedestrian" speed="6.76" length="3.79" shape="33.43,-217.44 34.18,-219.68 34.02,-221.10"/>
    </edge>
    <edge id=":clusterJ0_J13_J16_J17_#4more_17" function="internal">
        <lane id=":clusterJ0_J13_J16_J17_#4more_17_0" index="0" disallow="pedestrian" speed="6.76" length="6.31" shape="34.02,-221.10 33.89,-222.26 32.77,-224.69 31.05,-226.46"/>
    </edge>
    <edge id=":clusterJ0_J13_J16_J17_#4more_10" function="internal">
        <lane id=":clusterJ0_J13_J16_J17_#4more_10_0" index="0" allow="bicycle" speed="4.71" length="5.10" width="1.00" shape="29.70,-224.44 30.50,-223.64 30.76,-222.63 30.49,-221.40 29.67,-219.96"/>
    </edge>
    <edge id=":clusterJ0_J13_J16_J17_#4more_11" function="internal">
        <lane id=":clusterJ0_J13_J16_J17_#4more_11_0" index="0" allow="bicycle" speed="13.89" length="10.44" width="1.00" shape="29.70,-224.44 38.36,-218.63"/>
    </edge>
    <edge id=":clusterJ0_J13_J16_J17_#4more_12" function="internal">
        <lane id=":clusterJ0_J13_J16_J17_#4more_12_0" index="0" allow="bicycle" speed="7.33" length="4.93" width="1.00" shape="29.70,-224.44 32.66,-223.08 34.32,-222.99"/>
    </edge>
    <edge id=":clusterJ0_J13_J16_J17_#4more_13" function="internal">
        <lane id=":clusterJ0_J13_J16_J17_#4more_13_0" index="0" allow="bicycle" speed="3.35" length="2.23" width="1.00" shape="29.70,-224.44 31.29,-224.44 31.84,-224.76"/>
    </edge>
    <edge id=":clusterJ0_J13_J16_J17_#4more_18" function="internal">
        <lane id=":clusterJ0_J13_J16_J17_#4more_18_0" index="0" allow="bicycle" speed="7.33" length="6.98" width="1.00" shape="34.32,-222.99 35.38,-222.93 37.86,-224.02 40.10,-226.32"/>
    </edge>
    <edge id=":clusterJ0_J13_J16_J17_#4more_19" function="internal">
        <lane id=":clusterJ0_J13_J16_J17_#4more_19_0" index="0" allow="bicycle" speed="3.35" length="2.92" width="1.00" shape="31.84,-224.76 32.14,-224.93 32.26,-225.91 31.65,-227.38"/>
    </edge>
    <edge id=":clusterJ12_J14_J17_J2_#4more_0" function="internal">
        <lane id=":clusterJ12_J14_J17_J2_#4more_0_0" index="0" allow="bicycle" speed="5.99" length="7.33" width="1.00" shape="96.18,-191.51 94.72,-189.81 93.21,-188.91 91.64,-188.79 90.02,-189.46"/>
    </edge>
    <edge id=":clusterJ12_J14_J17_J2_#4more_1" function="internal">
        <lane id=":clusterJ12_J14_J17_J2_#4more_1_0" index="0" allow="bicycle" speed="7.10" length="11.23" width="1.00" shape="98.00,-190.27 96.20,-187.03 95.57,-184.30 96.12,-182.07 97.84,-180.35"/>
    </edge>
    <edge id=":clusterJ12_J14_J17_J2_#4more_2" function="internal">
        <lane id=":clusterJ12_J14_J17_J2_#4more_2_0" index="0" disallow="pedestrian" speed="6.80" length="10.19" shape="97.09,-190.89 95.89,-188.41 95.81,-186.14 96.86,-184.08 99.03,-182.23"/>
    </edge>
    <edge id=":clusterJ12_J14_J17_J2_#4more_3" function="internal">
        <lane id=":clusterJ12_J14_J17_J2_#4more_3_0" index="0" allow="bicycle" speed="5.31" length="6.52" width="1.00" shape="100.16,-184.02 98.80,-185.19 98.15,-186.51 98.23,-187.97 99.01,-189.58"/>
    </edge>
    <edge id=":clusterJ12_J14_J17_J2_#4more_4" function="internal">
        <lane id=":clusterJ12_J14_J17_J2_#4more_4_0" index="0" allow="bicycle" speed="13.89" length="11.51" width="1.00" shape="100.16,-184.02 90.02,-189.46"/>
    </edge>
    <edge id=":clusterJ12_J14_J17_J2_#4more_5" function="internal">
        <lane id=":clusterJ12_J14_J17_J2_#4more_5_0" index="0" allow="bicycle" speed="3.11" length="4.34" width="1.00" shape="100.16,-184.02 97.84,-180.35"/>
    </edge>
    <edge id=":clusterJ12_J14_J17_J2_#4more_6" function="internal">
        <lane id=":clusterJ12_J14_J17_J2_#4more_6_0" index="0" allow="bicycle" speed="3.21" length="1.93" width="1.00" shape="100.16,-184.02 98.71,-183.98 98.30,-183.74"/>
    </edge>
    <edge id=":clusterJ12_J14_J17_J2_#4more_14" function="internal">
        <lane id=":clusterJ12_J14_J17_J2_#4more_14_0" index="0" allow="bicycle" speed="3.21" length="2.76" width="1.00" shape="98.30,-183.74 97.94,-183.52 97.85,-182.63 98.44,-181.31"/>
    </edge>
    <edge id=":clusterJ12_J14_J17_J2_#4more_7" function="internal">
        <lane id=":clusterJ12_J14_J17_J2_#4more_7_0" index="0" allow="bicycle" speed="13.89" length="11.53" width="1.00" shape="87.76,-185.96 97.84,-180.35"/>
    </edge>
    <edge id=":clusterJ12_J14_J17_J2_#4more_8" function="internal">
        <lane id=":clusterJ12_J14_J17_J2_#4more_8_0" index="0" allow="bicycle" speed="13.89" length="11.69" width="1.00" shape="87.76,-185.96 90.91,-184.29 93.36,-183.46 95.68,-182.73 98.44,-181.31"/>
    </edge>
    <edge id=":clusterJ12_J14_J17_J2_#4more_9" function="internal">
        <lane id=":clusterJ12_J14_J17_J2_#4more_9_0" index="0" allow="bicycle" speed="7.66" length="6.87" width="1.00" shape="87.76,-185.96 90.76,-184.72 93.64,-184.91 94.28,-185.29"/>
    </edge>
    <edge id=":clusterJ12_J14_J17_J2_#4more_10" function="internal">
        <lane id=":clusterJ12_J14_J17_J2_#4more_10_0" index="0" allow="bicycle" speed="3.05" length="3.19" width="1.00" shape="87.76,-185.96 89.49,-188.65"/>
    </edge>
    <edge id=":clusterJ12_J14_J17_J2_#4more_15" function="internal">
        <lane id=":clusterJ12_J14_J17_J2_#4more_15_0" index="0" allow="bicycle" speed="7.66" length="6.48" width="1.00" shape="94.28,-185.29 96.39,-186.53 99.01,-189.58"/>
    </edge>
    <edge id=":clusterJ12_J14_J17_J2_#4more_16" function="internal">
        <lane id=":clusterJ12_J14_J17_J2_#4more_16_0" index="0" allow="bicycle" speed="3.05" length="0.96" width="1.00" shape="89.49,-188.65 90.02,-189.46"/>
    </edge>
    <edge id=":clusterJ12_J14_J17_J2_#4more_11" function="internal">
        <lane id=":clusterJ12_J14_J17_J2_#4more_11_0" index="0" allow="bicycle" speed="13.89" length="11.51" width="1.00" shape="88.30,-186.79 97.84,-180.35"/>
    </edge>
    <edge id=":clusterJ12_J14_J17_J2_#4more_12" function="internal">
        <lane id=":clusterJ12_J14_J17_J2_#4more_12_0" index="0" speed="13.89" length="11.52" shape="88.90,-187.72 99.03,-182.23"/>
    </edge>
    <edge id=":clusterJ12_J14_J17_J2_#4more_13" function="internal">
        <lane id=":clusterJ12_J14_J17_J2_#4more_13_0" index="0" allow="bicycle" speed="7.13" length="10.82" width="1.00" shape="89.49,-188.64 92.40,-187.21 94.96,-186.89 97.17,-187.68 99.01,-189.58"/>
    </edge>
    <edge id=":clusterJ12_J8_0" function="internal">
        <lane id=":clusterJ12_J8_0_0" index="0" allow="bicycle" speed="13.89" length="5.81" width="1.00" shape="24.21,-199.63 24.93,-201.15 25.08,-202.37 25.23,-203.58 25.99,-205.08"/>
    </edge>
    <edge id=":clusterJ12_J8_1" function="internal">
        <lane id=":clusterJ12_J8_1_0" index="0" disallow="pedestrian" speed="13.89" length="5.65" shape="22.16,-200.89 25.09,-205.72"/>
    </edge>
    <edge id=":clusterJ14_J9_0" function="internal">
        <lane id=":clusterJ14_J9_0_0" index="0" allow="bicycle" speed="13.89" length="4.72" width="1.00" shape="20.88,-207.42 19.97,-206.37 19.18,-205.79 18.41,-205.21 17.52,-204.14"/>
    </edge>
    <edge id=":clusterJ14_J9_1" function="internal">
        <lane id=":clusterJ14_J9_1_0" index="0" disallow="pedestrian" speed="13.89" length="4.32" shape="21.78,-206.79 21.10,-205.70 20.74,-204.90 20.38,-204.10 19.72,-203.00"/>
    </edge>
    <edge id=":clusterJ18_J25_0" function="internal">
        <lane id=":clusterJ18_J25_0_0" index="0" allow="bicycle" speed="13.89" length="5.35" width="1.00" shape="22.82,-233.16 21.57,-234.12 20.82,-234.92 20.07,-235.73 18.82,-236.69"/>
    </edge>
    <edge id=":clusterJ18_J25_1" function="internal">
        <lane id=":clusterJ18_J25_1_0" index="0" disallow="pedestrian" speed="13.89" length="5.03" shape="22.22,-232.24 17.86,-234.76"/>
    </edge>
    <edge id=":clusterJ31_J33_0" function="internal">
        <lane id=":clusterJ31_J33_0_0" index="0" allow="bicycle" speed="13.89" length="5.18" width="1.00" shape="46.94,-235.75 47.93,-236.92 48.72,-237.62 49.51,-238.33 50.46,-239.53"/>
    </edge>
    <edge id=":clusterJ31_J33_1" function="internal">
        <lane id=":clusterJ31_J33_1_0" index="0" disallow="pedestrian" speed="13.89" length="4.85" shape="46.05,-236.40 48.58,-240.53"/>
    </edge>
    <edge id=":clusterJ37_J39_0" function="internal">
        <lane id=":clusterJ37_J39_0_0" index="0" allow="bicycle" speed="13.89" length="5.82" width="1.00" shape="43.90,-243.17 43.09,-241.66 42.79,-240.50 42.48,-239.34 41.64,-237.85"/>
    </edge>
    <edge id=":clusterJ37_J39_1" function="internal">
        <lane id=":clusterJ37_J39_1_0" index="0" disallow="pedestrian" speed="13.89" length="5.60" shape="45.72,-241.82 42.54,-237.21"/>
    </edge>
    <edge id=":clusterJ39_J40_J41_J42_#4more_0" function="internal">
        <lane id=":clusterJ39_J40_J41_J42_#4more_0_0" index="0" allow="bicycle" speed="13.89" length="11.28" width="1.00" shape="172.32,-108.82 163.13,-115.35"/>
    </edge>
    <edge id=":clusterJ39_J40_J41_J42_#4more_1" function="internal">
        <lane id=":clusterJ39_J40_J41_J42_#4more_1_0" index="0" allow="bicycle" speed="7.41" length="4.79" width="1.00" shape="172.32,-108.82 169.41,-110.14 167.82,-110.10"/>
    </edge>
    <edge id=":clusterJ39_J40_J41_J42_#4more_2" function="internal">
        <lane id=":clusterJ39_J40_J41_J42_#4more_2_0" index="0" allow="bicycle" speed="3.14" length="4.45" width="1.00" shape="172.32,-108.82 169.86,-105.11"/>
    </edge>
    <edge id=":clusterJ39_J40_J41_J42_#4more_3" function="internal">
        <lane id=":clusterJ39_J40_J41_J42_#4more_3_0" index="0" allow="bicycle" speed="3.27" length="2.05" width="1.00" shape="172.32,-108.82 170.82,-108.82 170.35,-108.55"/>
    </edge>
    <edge id=":clusterJ39_J40_J41_J42_#4more_15" function="internal">
        <lane id=":clusterJ39_J40_J41_J42_#4more_15_0" index="0" allow="bicycle" speed="7.41" length="7.90" width="1.00" shape="167.82,-110.10 166.64,-110.08 164.03,-108.64 161.57,-105.82"/>
    </edge>
    <edge id=":clusterJ39_J40_J41_J42_#4more_16" function="internal">
        <lane id=":clusterJ39_J40_J41_J42_#4more_16_0" index="0" allow="bicycle" speed="3.27" length="2.83" width="1.00" shape="170.35,-108.55 170.01,-108.36 169.89,-107.43 170.47,-106.04"/>
    </edge>
    <edge id=":clusterJ39_J40_J41_J42_#4more_4" function="internal">
        <lane id=":clusterJ39_J40_J41_J42_#4more_4_0" index="0" allow="bicycle" speed="5.34" length="6.41" width="1.00" shape="164.32,-104.04 165.50,-105.34 166.82,-105.95 168.27,-105.87 169.86,-105.11"/>
    </edge>
    <edge id=":clusterJ39_J40_J41_J42_#4more_5" function="internal">
        <lane id=":clusterJ39_J40_J41_J42_#4more_5_0" index="0" allow="bicycle" speed="5.69" length="7.33" width="1.00" shape="164.32,-104.04 165.78,-105.74 167.29,-106.64 168.85,-106.74 170.47,-106.04"/>
    </edge>
    <edge id=":clusterJ39_J40_J41_J42_#4more_6" function="internal">
        <lane id=":clusterJ39_J40_J41_J42_#4more_6_0" index="0" allow="bicycle" speed="7.55" length="12.85" width="1.00" shape="164.32,-104.04 166.02,-107.36 166.39,-110.35 165.43,-113.01 163.13,-115.35"/>
    </edge>
    <edge id=":clusterJ39_J40_J41_J42_#4more_7" function="internal">
        <lane id=":clusterJ39_J40_J41_J42_#4more_7_0" index="0" allow="bicycle" speed="5.64" length="7.04" width="1.00" shape="160.64,-111.97 161.98,-110.65 162.58,-109.18 162.44,-107.57 161.57,-105.82"/>
    </edge>
    <edge id=":clusterJ39_J40_J41_J42_#4more_8" function="internal">
        <lane id=":clusterJ39_J40_J41_J42_#4more_8_0" index="0" allow="bicycle" speed="13.89" length="11.49" width="1.00" shape="160.64,-111.97 169.86,-105.11"/>
    </edge>
    <edge id=":clusterJ39_J40_J41_J42_#4more_9" function="internal">
        <lane id=":clusterJ39_J40_J41_J42_#4more_9_0" index="0" allow="bicycle" speed="13.89" length="11.49" width="1.00" shape="160.64,-111.97 163.55,-110.00 165.74,-108.78 167.83,-107.66 170.47,-106.04"/>
    </edge>
    <edge id=":clusterJ39_J40_J41_J42_#4more_10" function="internal">
        <lane id=":clusterJ39_J40_J41_J42_#4more_10_0" index="0" allow="bicycle" speed="3.62" length="4.07" width="1.00" shape="160.64,-111.97 162.53,-111.88 163.58,-112.42 163.75,-113.40"/>
    </edge>
    <edge id=":clusterJ39_J40_J41_J42_#4more_17" function="internal">
        <lane id=":clusterJ39_J40_J41_J42_#4more_17_0" index="0" allow="bicycle" speed="3.62" length="2.07" width="1.00" shape="163.75,-113.40 163.78,-113.57 163.13,-115.35"/>
    </edge>
    <edge id=":clusterJ39_J40_J41_J42_#4more_11" function="internal">
        <lane id=":clusterJ39_J40_J41_J42_#4more_11_0" index="0" disallow="pedestrian" speed="6.78" length="9.55" shape="161.89,-113.66 163.50,-111.95 164.14,-109.97 163.79,-107.72 162.48,-105.20"/>
    </edge>
    <edge id=":clusterJ39_J40_J41_J42_#4more_12" function="internal">
        <lane id=":clusterJ39_J40_J41_J42_#4more_12_0" index="0" allow="bicycle" speed="13.89" length="11.55" width="1.00" shape="161.23,-112.78 169.86,-105.11"/>
    </edge>
    <edge id=":clusterJ39_J40_J41_J42_#4more_13" function="internal">
        <lane id=":clusterJ39_J40_J41_J42_#4more_13_0" index="0" speed="13.89" length="11.38" shape="161.89,-113.66 171.08,-106.95"/>
    </edge>
    <edge id=":clusterJ39_J40_J41_J42_#4more_14" function="internal">
        <lane id=":clusterJ39_J40_J41_J42_#4more_14_0" index="0" allow="bicycle" speed="3.25" length="3.20" width="1.00" shape="161.23,-112.78 163.13,-115.35"/>
    </edge>

    <edge id="E0" from="clusterJ0_J13_J16_J17_#4more" to="J1" priority="-1" spreadType="center" shape="38.42,-218.71 45.87,-213.76">
        <lane id="E0_0" index="0" allow="pedestrian" speed="13.89" length="9.88" width="2.00" shape="35.98,-218.41 44.98,-212.43"/>
        <lane id="E0_1" index="1" disallow="pedestrian" speed="13.89" length="9.88" shape="38.97,-219.54 46.42,-214.59"/>
    </edge>
    <edge id="E1" from="J7" to="clusterJ12_J8" priority="-1" spreadType="center" shape="-64.84,-71.50 22.90,-201.99 25.65,-204.78">
        <lane id="E1_0" index="0" speed="13.89" length="155.91" shape="-64.84,-71.50 22.16,-200.89"/>
    </edge>
    <edge id="E10" from="clusterJ18_J25" to="J19" priority="-1" spreadType="center" shape="23.72,-232.45 19.30,-233.82 -4.37,-249.26">
        <lane id="E10_0" index="0" speed="13.89" length="26.55" shape="17.86,-234.76 -4.37,-249.26"/>
    </edge>
    <edge id="E11" from="clusterJ12_J14_J17_J2_#4more" to="J9" priority="-1" spreadType="center" shape="99.12,-187.96 167.56,-288.49">
        <lane id="E11_0" index="0" allow="pedestrian" speed="13.89" length="120.34" width="2.00" shape="100.25,-188.74 167.97,-288.21"/>
        <lane id="E11_1" index="1" allow="bicycle" speed="13.89" length="120.34" width="1.00" shape="99.01,-189.58 166.73,-289.05"/>
    </edge>
    <edge id="E12" from="clusterJ12_J14_J17_J2_#4more" to="clusterJ0_J13_J16_J17_#4more" priority="-1" spreadType="center" shape="91.50,-189.69 40.78,-222.37">
        <lane id="E12_0" index="0" allow="pedestrian" speed="13.89" length="59.02" width="2.00" shape="90.83,-190.72 41.24,-222.67"/>
        <lane id="E12_1" index="1" allow="bicycle" speed="13.89" length="59.02" width="1.00" shape="90.02,-189.46 40.38,-221.44"/>
    </edge>
    <edge id="E13" from="clusterJ18_J25" to="J26" priority="-1" spreadType="center" shape="23.72,-232.45 20.61,-236.71 -2.84,-251.98">
        <lane id="E13_0" index="0" allow="pedestrian" speed="13.89" length="26.77" width="2.00" shape="20.10,-237.64 -2.57,-252.40"/>
        <lane id="E13_1" index="1" allow="bicycle" speed="13.89" length="26.77" width="1.00" shape="18.82,-236.69 -3.39,-251.14"/>
    </edge>
    <edge id="E14" from="clusterJ0_J13_J16_J17_#4more" to="clusterJ18_J25" priority="-1" spreadType="center" shape="31.76,-227.19 23.72,-232.45">
        <lane id="E14_0" index="0" allow="pedestrian" speed="13.89" length="10.57" width="2.00" shape="32.50,-228.62 23.64,-234.41"/>
        <lane id="E14_1" index="1" disallow="pedestrian" speed="13.89" length="10.57" shape="31.05,-226.46 22.22,-232.24"/>
    </edge>
    <edge id="E15" from="J28" to="clusterJ0_J13_J16_J17_#4more" priority="-1" spreadType="center" shape="-6.51,-246.45 29.03,-223.68">
        <lane id="E15_0" index="0" allow="pedestrian" speed="13.89" length="43.37" width="2.00" shape="-6.78,-246.03 30.60,-222.08"/>
        <lane id="E15_1" index="1" allow="bicycle" speed="13.89" length="43.37" width="1.00" shape="-5.97,-247.29 29.70,-224.44"/>
    </edge>
    <edge id="E16" from="clusterJ31_J33" to="J32" priority="-1" spreadType="center" shape="46.10,-234.76 47.62,-239.14 108.51,-327.75">
        <lane id="E16_0" index="0" speed="13.89" length="105.82" shape="48.58,-240.53 108.51,-327.75"/>
    </edge>
    <edge id="E17" from="clusterJ31_J33" to="J34" priority="-1" spreadType="center" shape="46.10,-234.76 50.42,-237.70 111.23,-326.19">
        <lane id="E17_0" index="0" allow="pedestrian" speed="13.89" length="106.12" width="2.00" shape="51.38,-238.21 111.64,-325.91"/>
        <lane id="E17_1" index="1" allow="bicycle" speed="13.89" length="106.12" width="1.00" shape="50.46,-239.53 110.41,-326.76"/>
    </edge>
    <edge id="E18" from="clusterJ0_J13_J16_J17_#4more" to="clusterJ31_J33" priority="-1" spreadType="center" shape="39.59,-225.79 46.10,-234.76">
        <lane id="E18_0" index="0" allow="pedestrian" speed="13.89" length="12.66" width="2.00" shape="40.13,-223.80 48.16,-234.87"/>
        <lane id="E18_1" index="1" disallow="pedestrian" speed="13.89" length="12.66" shape="39.21,-226.97 46.05,-236.40"/>
    </edge>
    <edge id="E19" from="J36" to="clusterJ37_J39" priority="-1" spreadType="center" shape="106.00,-329.76 45.13,-240.96 41.59,-237.60">
        <lane id="E19_0" index="0" speed="13.89" length="106.62" shape="106.00,-329.76 45.72,-241.82"/>
    </edge>
    <edge id="E2" from="clusterJ14_J9" to="J10" priority="-1" spreadType="center" shape="21.24,-207.76 20.31,-203.87 -67.38,-73.56">
        <lane id="E2_0" index="0" speed="13.89" length="156.02" shape="19.72,-203.00 -67.38,-73.56"/>
    </edge>
    <edge id="E20" from="J38" to="clusterJ37_J39" priority="-1" spreadType="center" shape="103.54,-331.98 42.29,-242.59 41.59,-237.60">
        <lane id="E20_0" index="0" allow="pedestrian" speed="13.89" length="107.33" width="2.00" shape="103.13,-332.26 42.26,-243.43"/>
        <lane id="E20_1" index="1" allow="bicycle" speed="13.89" length="107.33" width="1.00" shape="104.36,-331.41 43.90,-243.17"/>
    </edge>
    <edge id="E21" from="clusterJ37_J39" to="clusterJ0_J13_J16_J17_#4more" priority="-1" spreadType="center" shape="41.59,-237.60 35.21,-228.69">
        <lane id="E21_0" index="0" allow="pedestrian" speed="13.89" length="11.51" width="2.00" shape="40.43,-238.72 33.07,-228.45"/>
        <lane id="E21_1" index="1" disallow="pedestrian" speed="13.89" length="11.51" shape="42.54,-237.21 36.49,-228.76"/>
    </edge>
    <edge id="E22" from="clusterJ12_J14_J17_J2_#4more" to="clusterJ39_J40_J41_J42_#4more" priority="-1" spreadType="center" shape="94.51,-181.28 133.52,-156.52 138.10,-151.85 142.41,-143.31 143.96,-136.48 145.44,-130.33 147.00,-124.40 148.26,-121.17 151.49,-117.61 154.64,-115.12 162.45,-109.41">
        <lane id="E22_0" index="0" allow="pedestrian" speed="13.89" length="97.48" width="2.00" shape="97.03,-179.09 133.20,-156.13 137.69,-151.56 141.94,-143.14 143.47,-136.37 144.96,-130.21 146.52,-124.25 147.83,-120.90 151.15,-117.24 154.34,-114.72 159.75,-110.76"/>
        <lane id="E22_1" index="1" allow="bicycle" speed="13.89" length="97.48" width="1.00" shape="97.84,-180.35 134.15,-157.30 138.92,-152.44 143.36,-143.65 144.93,-136.71 146.41,-130.57 147.95,-124.71 149.12,-121.71 152.18,-118.34 155.25,-115.92 160.64,-111.97"/>
    </edge>
    <edge id="E23" from="clusterJ12_J14_J17_J2_#4more" to="clusterJ39_J40_J41_J42_#4more" priority="-1" spreadType="center" shape="96.68,-183.73 136.15,-158.58 140.56,-153.70 145.21,-144.60 146.76,-137.96 148.30,-131.68 149.81,-125.92 150.85,-122.92 153.51,-119.94 163.90,-112.15">
        <lane id="E23_0" index="0" speed="13.89" length="97.69" shape="99.03,-182.23 136.15,-158.58 140.56,-153.70 145.21,-144.60 146.76,-137.96 148.30,-131.68 149.81,-125.92 150.85,-122.92 153.51,-119.94 161.89,-113.66"/>
    </edge>
    <edge id="E24" from="clusterJ39_J40_J41_J42_#4more" to="clusterJ12_J14_J17_J2_#4more" priority="-1" spreadType="center" shape="166.17,-114.36 155.90,-121.92 153.56,-124.54 152.59,-127.41 151.21,-132.98 149.68,-139.33 147.76,-146.26 143.27,-155.42 138.41,-160.76 98.49,-186.27">
        <lane id="E24_0" index="0" allow="pedestrian" speed="13.89" length="97.88" width="2.00" shape="164.02,-116.56 156.24,-122.29 154.00,-124.80 153.07,-127.55 151.70,-133.10 150.16,-139.46 148.23,-146.44 143.69,-155.70 138.74,-161.15 100.96,-185.28"/>
        <lane id="E24_1" index="1" allow="bicycle" speed="13.89" length="97.88" width="1.00" shape="163.13,-115.35 155.22,-121.18 152.68,-124.03 151.63,-127.13 150.24,-132.74 148.71,-139.08 146.82,-145.90 142.43,-154.85 137.76,-159.99 100.16,-184.02"/>
    </edge>
    <edge id="E25" from="clusterJ39_J40_J41_J42_#4more" to="J23" priority="-1" spreadType="center" shape="161.65,-105.76 82.88,10.04">
        <lane id="E25_0" index="0" allow="pedestrian" speed="13.89" length="140.05" width="2.00" shape="160.33,-106.66 81.56,9.14"/>
        <lane id="E25_1" index="1" disallow="pedestrian" speed="13.89" length="140.05" shape="162.48,-105.20 83.71,10.60"/>
    </edge>
    <edge id="E26" from="J25" to="clusterJ39_J40_J41_J42_#4more" priority="-1" spreadType="center" shape="86.21,12.56 165.15,-103.48">
        <lane id="E26_0" index="0" allow="pedestrian" speed="13.89" length="140.35" width="2.00" shape="86.62,12.84 165.56,-103.20"/>
        <lane id="E26_1" index="1" allow="bicycle" speed="13.89" length="140.35" width="1.00" shape="85.38,12.00 164.32,-104.04"/>
    </edge>
    <edge id="E27" from="clusterJ39_J40_J41_J42_#4more" to="J30" priority="-1" spreadType="center" shape="167.68,-105.36 227.68,-65.43">
        <lane id="E27_0" index="0" allow="pedestrian" speed="13.89" length="70.12" width="2.00" shape="169.03,-103.86 227.40,-65.01"/>
        <lane id="E27_1" index="1" allow="bicycle" speed="13.89" length="70.12" width="1.00" shape="169.86,-105.11 228.23,-66.26"/>
    </edge>
    <edge id="E28" from="clusterJ39_J40_J41_J42_#4more" to="J33" priority="-1" spreadType="center" shape="169.74,-107.85 229.49,-67.91">
        <lane id="E28_0" index="0" speed="13.89" length="70.25" shape="171.08,-106.95 229.49,-67.91"/>
    </edge>
    <edge id="E29" from="J35" to="clusterJ39_J40_J41_J42_#4more" priority="-1" spreadType="center" shape="231.61,-70.26 171.48,-110.59">
        <lane id="E29_0" index="0" allow="pedestrian" speed="13.89" length="70.72" width="2.00" shape="231.89,-70.68 173.16,-110.07"/>
        <lane id="E29_1" index="1" allow="bicycle" speed="13.89" length="70.72" width="1.00" shape="231.05,-69.43 172.32,-108.82"/>
    </edge>
    <edge id="E3" from="J11" to="clusterJ12_J8" priority="-1" spreadType="center" shape="-62.02,-69.85 25.66,-199.99 25.65,-204.78">
        <lane id="E3_0" index="0" allow="pedestrian" speed="13.89" length="156.27" width="2.00" shape="-61.61,-69.57 25.97,-199.55"/>
        <lane id="E3_1" index="1" allow="bicycle" speed="13.89" length="156.27" width="1.00" shape="-62.85,-70.41 24.21,-199.63"/>
    </edge>
    <edge id="E4" from="J1" to="clusterJ12_J14_J17_J2_#4more" priority="-1" spreadType="center" shape="45.87,-213.76 50.64,-212.31 87.96,-188.32">
        <lane id="E4_0" index="0" speed="13.89" length="44.34" shape="51.60,-211.70 88.90,-187.72"/>
    </edge>
    <edge id="E5" from="J1" to="clusterJ12_J14_J17_J2_#4more" priority="-1" spreadType="center" shape="45.87,-213.76 48.82,-209.72 87.93,-184.67">
        <lane id="E5_0" index="0" allow="pedestrian" speed="13.89" length="44.36" width="2.00" shape="49.36,-208.78 86.95,-184.70"/>
        <lane id="E5_1" index="1" allow="bicycle" speed="13.89" length="44.36" width="1.00" shape="50.65,-209.74 87.76,-185.96"/>
    </edge>
    <edge id="E6" from="clusterJ14_J9" to="J15" priority="-1" spreadType="center" shape="21.24,-207.76 17.20,-205.46 -70.05,-75.37">
        <lane id="E6_0" index="0" allow="pedestrian" speed="13.89" length="156.08" width="2.00" shape="16.67,-205.56 -70.47,-75.65"/>
        <lane id="E6_1" index="1" allow="bicycle" speed="13.89" length="156.08" width="1.00" shape="17.52,-204.14 -69.22,-74.81"/>
    </edge>