<?xml version="1.0" encoding="UTF-8"?>

<!-- generated on 2025-11-02 13:53:05 by Eclipse SUMO GUI Version 1.24.0
-->

<sumoConfiguration xmlns:xsi="http://www.w3.org/2001/XMLSchema-instance" xsi:noNamespaceSchemaLocation="http://sumo.dlr.de/xsd/sumoConfiguration.xsd">

    <input>
        <net-file value="network.net.xml"/>
        <route-files value="route.rou.xml"/>
    </input>

</sumoConfiguration>
