<?xml version="1.0" encoding="UTF-8"?>

<!-- generated on 2025-11-04 10:49:54.131817 by randomTrips.py v1_24_0+0000-b72eb3fabc8
<configuration>
    <net-file value="../networks/demo.net.xml"/>
    <output-trip-file value="../routes/demo/car.trips.xml"/>
    <route-file value="../routes/demo/car.rou.xml"/>
    <prefix value="car"/>
    <fringe-factor value="max"/>
    <seed value="43"/>
    <end value="1000.0"/>
    <period value="5.0"/>
    <poisson value="True"/>
</configuration>
-->

<routes xmlns:xsi="http://www.w3.org/2001/XMLSchema-instance" xsi:noNamespaceSchemaLocation="http://sumo.dlr.de/xsd/routes_file.xsd">
    <trip id="car0" depart="0.00" from="CheMe_1_1" to="HunSt_1_2"/>
    <trip id="car1" depart="5.00" from="HunSt_1_1" to="HunSt_1_2"/>
    <trip id="car2" depart="10.00" from="GowSt_1_1" to="TorPl_2_4"/>
    <trip id="car3" depart="15.00" from="GowSt_2_1" to="HunSt_1_2"/>
    <trip id="car4" depart="20.00" from="GowSt_2_1" to="GorSq_2_3"/>
    <trip id="car5" depart="25.00" from="GowSt_1_1" to="GorSq_1_3"/>
    <trip id="car6" depart="30.00" from="GowSt_2_1" to="GowSt_2_2"/>
    <trip id="car7" depart="35.00" from="GowSt_1_1" to="GorSq_1_3"/>
    <trip id="car8" depart="40.00" from="CheMe_1_1" to="TorPl_2_4"/>
    <trip id="car9" depart="45.00" from="MalSt_2_1" to="GorSq_2_3"/>
    <trip id="car10" depart="50.00" from="CheMe_1_1" to="TorPl_2_4"/>
    <trip id="car11" depart="55.00" from="HunSt_1_1" to="TorPl_2_4"/>
    <trip id="car12" depart="60.00" from="HunSt_1_1" to="HunSt_1_2"/>
    <trip id="car13" depart="65.00" from="GowSt_2_1" to="HunSt_1_2"/>
    <trip id="car14" depart="70.00" from="MalSt_2_1" to="GorSq_1_3"/>
    <trip id="car15" depart="75.00" from="MalSt_2_1" to="GorSq_1_3"/>
    <trip id="car16" depart="80.00" from="GowSt_2_1" to="GorSq_1_3"/>
    <trip id="car17" depart="85.00" from="CheMe_1_1" to="TorPl_2_4"/>
    <trip id="car18" depart="90.00" from="RidGa_2_1" to="TorPl_2_4"/>
    <trip id="car19" depart="95.00" from="GowSt_1_1" to="HunSt_1_2"/>
    <trip id="car20" depart="100.00" from="GowSt_2_1" to="TorPl_2_4"/>
    <trip id="car21" depart="105.00" from="HunSt_1_1" to="TorPl_2_4"/>
    <trip id="car22" depart="110.00" from="GowSt_1_1" to="HunSt_1_2"/>
    <trip id="car23" depart="115.00" from="HunSt_1_1" to="TorPl_2_4"/>
    <trip id="car24" depart="120.00" from="GowSt_1_1" to="GowSt_1_2"/>
    <trip id="car25" depart="125.00" from="RidGa_2_1" to="HunSt_1_2"/>
    <trip id="car26" depart="130.00" from="GowSt_1_1" to="TorPl_2_4"/>
    <trip id="car27" depart="135.00" from="GowSt_2_1" to="GowSt_2_2"/>
    <trip id="car28" depart="140.00" from="GowSt_2_1" to="TorPl_2_4"/>
    <trip id="car29" depart="145.00" from="RidGa_2_1" to="TorPl_2_4"/>
    <trip id="car30" depart="150.00" from="CheMe_1_1" to="HunSt_1_2"/>
    <trip id="car31" depart="155.00" from="GorSq_1_1" to="GorSq_1_3"/>
    <trip id="car32" depart="160.00" from="GowSt_1_1" to="GorSq_1_3"/>
    <trip id="car33" depart="165.00" from="GowSt_1_1" to="GorSq_2_3"/>
    <trip id="car34" depart="170.00" from="GorSq_1_1" to="GorSq_1_3"/>
    <trip id="car35" depart="175.00" from="HunSt_1_1" to="HunSt_1_2"/>
    <trip id="car36" depart="180.00" from="GorSq_1_1" to="GorSq_1_3"/>
    <trip id="car37" depart="185.00" from="CheMe_1_1" to="HunSt_1_2"/>
    <trip id="car38" depart="190.00" from="RidGa_2_1" to="HunSt_1_2"/>
    <trip id="car39" depart="195.00" from="GowSt_2_1" to="TorPl_2_4"/>
    <trip id="car40" depart="200.00" from="HunSt_1_1" to="HunSt_1_2"/>
    <trip id="car41" depart="205.00" from="GowSt_2_1" to="GowSt_2_2"/>
    <trip id="car42" depart="210.00" from="HunSt_1_1" to="HunSt_1_2"/>
    <trip id="car43" depart="215.00" from="CheMe_1_1" to="TorPl_2_4"/>
    <trip id="car44" depart="220.00" from="HunSt_1_1" to="TorPl_2_4"/>
    <trip id="car45" depart="225.00" from="GowSt_2_1" to="GorSq_2_3"/>
    <trip id="car46" depart="230.00" from="GowSt_1_1" to="GowSt_1_2"/>
    <trip id="car47" depart="235.00" from="GorSq_1_1" to="GorSq_1_3"/>
    <trip id="car48" depart="240.00" from="GowSt_1_1" to="HunSt_1_2"/>
    <trip id="car49" depart="245.00" from="GowSt_1_1" to="HunSt_1_2"/>
    <trip id="car50" depart="250.00" from="GowSt_1_1" to="TorPl_2_4"/>
    <trip id="car51" depart="255.00" from="GowSt_2_1" to="GorSq_1_3"/>
    <trip id="car52" depart="260.00" from="MalSt_2_1" to="GorSq_2_3"/>
    <trip id="car53" depart="265.00" from="HunSt_1_1" to="HunSt_1_2"/>
    <trip id="car54" depart="270.00" from="GowSt_2_1" to="TorPl_2_4"/>
    <trip id="car55" depart="275.00" from="RidGa_2_1" to="TorPl_2_4"/>
    <trip id="car56" depart="280.00" from="GowSt_2_1" to="GorSq_1_3"/>
    <trip id="car57" depart="285.00" from="MalSt_2_1" to="GorSq_2_3"/>
    <trip id="car58" depart="290.00" from="MalSt_2_1" to="GorSq_2_3"/>
    <trip id="car59" depart="295.00" from="GowSt_1_1" to="GowSt_1_2"/>
    <trip id="car60" depart="300.00" from="GowSt_2_1" to="GowSt_2_2"/>
    <trip id="car61" depart="305.00" from="CheMe_1_1" to="HunSt_1_2"/>
    <trip id="car62" depart="310.00" from="GowSt_2_1" to="HunSt_1_2"/>
    <trip id="car63" depart="315.00" from="GowSt_1_1" to="HunSt_1_2"/>
    <trip id="car64" depart="320.00" from="GowSt_2_1" to="TorPl_2_4"/>
    <trip id="car65" depart="325.00" from="GowSt_1_1" to="GorSq_1_3"/>
    <trip id="car66" depart="330.00" from="GowSt_1_1" to="GorSq_1_3"/>
    <trip id="car67" depart="335.00" from="RidGa_2_1" to="TorPl_2_4"/>
    <trip id="car68" depart="340.00" from="GowSt_1_1" to="GorSq_1_3"/>
    <trip id="car69" depart="345.00" from="RidGa_2_1" to="TorPl_2_4"/>
    <trip id="car70" depart="350.00" from="MalSt_2_1" to="GorSq_1_3"/>
    <trip id="car71" depart="355.00" from="CheMe_1_1" to="TorPl_2_4"/>
    <trip id="car72" depart="360.00" from="HunSt_1_1" to="HunSt_1_2"/>
    <trip id="car73" depart="365.00" from="GowSt_1_1" to="HunSt_1_2"/>
    <trip id="car74" depart="370.00" from="GowSt_2_1" to="GowSt_2_2"/>
    <trip id="car75" depart="375.00" from="CheMe_1_1" to="HunSt_1_2"/>
    <trip id="car76" depart="380.00" from="GorSq_1_1" to="GorSq_1_3"/>
    <trip id="car77" depart="385.00" from="HunSt_1_1" to="HunSt_1_2"/>
    <trip id="car78" depart="390.00" from="GowSt_2_1" to="GorSq_1_3"/>
    <trip id="car79" depart="395.00" from="GowSt_2_1" to="GorSq_2_3"/>
    <trip id="car80" depart="400.00" from="MalSt_2_1" to="GorSq_1_3"/>
    <trip id="car81" depart="405.00" from="GowSt_1_1" to="GorSq_1_3"/>
    <trip id="car82" depart="410.00" from="GowSt_2_1" to="GorSq_1_3"/>
    <trip id="car83" depart="415.00" from="RidGa_2_1" to="HunSt_1_2"/>
    <trip id="car84" depart="420.00" from="CheMe_1_1" to="HunSt_1_2"/>
    <trip id="car85" depart="425.00" from="GowSt_1_1" to="GowSt_1_2"/>
    <trip id="car86" depart="430.00" from="GowSt_1_1" to="GorSq_1_3"/>
    <trip id="car87" depart="435.00" from="GowSt_1_1" to="HunSt_1_2"/>
    <trip id="car88" depart="440.00" from="GorSq_1_1" to="GorSq_1_3"/>
    <trip id="car89" depart="445.00" from="GorSq_1_1" to="GorSq_1_3"/>
    <trip id="car90" depart="450.00" from="GowSt_1_1" to="TorPl_2_4"/>
    <trip id="car91" depart="455.00" from="GowSt_2_1" to="GorSq_2_3"/>
    <trip id="car92" depart="460.00" from="HunSt_1_1" to="HunSt_1_2"/>
    <trip id="car93" depart="465.00" from="GowSt_1_1" to="HunSt_1_2"/>
    <trip id="car94" depart="470.00" from="GowSt_2_1" to="GowSt_2_2"/>
    <trip id="car95" depart="475.00" from="GowSt_2_1" to="GorSq_2_3"/>
    <trip id="car96" depart="480.00" from="GowSt_1_1" to="GowSt_1_2"/>
    <trip id="car97" depart="485.00" from="MalSt_2_1" to="GorSq_2_3"/>
    <trip id="car98" depart="490.00" from="GowSt_2_1" to="GowSt_2_2"/>
    <trip id="car99" depart="495.00" from="GowSt_2_1" to="GorSq_2_3"/>
    <trip id="car100" depart="500.00" from="MalSt_2_1" to="GorSq_1_3"/>
    <trip id="car101" depart="505.00" from="RidGa_2_1" to="TorPl_2_4"/>
    <trip id="car102" depart="510.00" from="CheMe_1_1" to="HunSt_1_2"/>
    <trip id="car103" depart="515.00" from="CheMe_1_1" to="TorPl_2_4"/>
    <trip id="car104" depart="520.00" from="GowSt_2_1" to="HunSt_1_2"/>
    <trip id="car105" depart="525.00" from="CheMe_1_1" to="HunSt_1_2"/>
    <trip id="car106" depart="530.00" from="GowSt_2_1" to="GowSt_2_2"/>
    <trip id="car107" depart="535.00" from="CheMe_1_1" to="TorPl_2_4"/>
    <trip id="car108" depart="540.00" from="HunSt_1_1" to="HunSt_1_2"/>
    <trip id="car109" depart="545.00" from="GowSt_2_1" to="HunSt_1_2"/>
    <trip id="car110" depart="550.00" from="CheMe_1_1" to="HunSt_1_2"/>
    <trip id="car111" depart="555.00" from="RidGa_2_1" to="TorPl_2_4"/>
    <trip id="car112" depart="560.00" from="GowSt_1_1" to="HunSt_1_2"/>
    <trip id="car113" depart="565.00" from="GowSt_1_1" to="GowSt_1_2"/>
    <trip id="car114" depart="570.00" from="GowSt_1_1" to="GowSt_1_2"/>
    <trip id="car115" depart="575.00" from="CheMe_1_1" to="TorPl_2_4"/>
    <trip id="car116" depart="580.00" from="GorSq_1_1" to="GorSq_1_3"/>
    <trip id="car117" depart="585.00" from="GowSt_2_1" to="TorPl_2_4"/>
    <trip id="car118" depart="590.00" from="MalSt_2_1" to="GorSq_2_3"/>
    <trip id="car119" depart="595.00" from="HunSt_1_1" to="HunSt_1_2"/>
    <trip id="car120" depart="600.00" from="GowSt_1_1" to="GowSt_1_2"/>
    <trip id="car121" depart="605.00" from="GowSt_2_1" to="HunSt_1_2"/>
    <trip id="car122" depart="610.00" from="GowSt_1_1" to="TorPl_2_4"/>
    <trip id="car123" depart="615.00" from="GowSt_1_1" to="TorPl_2_4"/>
    <trip id="car124" depart="620.00" from="GowSt_2_1" to="GorSq_2_3"/>
    <trip id="car125" depart="625.00" from="CheMe_1_1" to="TorPl_2_4"/>
    <trip id="car126" depart="630.00" from="GowSt_2_1" to="HunSt_1_2"/>
    <trip id="car127" depart="635.00" from="MalSt_2_1" to="GorSq_1_3"/>
    <trip id="car128" depart="640.00" from="GorSq_1_1" to="GorSq_1_3"/>
    <trip id="car129" depart="645.00" from="GowSt_1_1" to="GorSq_2_3"/>
    <trip id="car130" depart="650.00" from="GowSt_2_1" to="GorSq_2_3"/>
    <trip id="car131" depart="655.00" from="GowSt_2_1" to="GorSq_1_3"/>
    <trip id="car132" depart="660.00" from="GowSt_1_1" to="TorPl_2_4"/>
    <trip id="car133" depart="665.00" from="CheMe_1_1" to="TorPl_2_4"/>
    <trip id="car134" depart="670.00" from="RidGa_2_1" to="TorPl_2_4"/>
    <trip id="car135" depart="675.00" from="GowSt_1_1" to="GowSt_1_2"/>
    <trip id="car136" depart="680.00" from="RidGa_2_1" to="TorPl_2_4"/>
    <trip id="car137" depart="685.00" from="GowSt_1_1" to="GorSq_1_3"/>
    <trip id="car138" depart="690.00" from="GowSt_2_1" to="GowSt_2_2"/>
    <trip id="car139" depart="695.00" from="RidGa_2_1" to="HunSt_1_2"/>
    <trip id="car140" depart="700.00" from="GorSq_1_1" to="GorSq_1_3"/>
    <trip id="car141" depart="705.00" from="CheMe_1_1" to="HunSt_1_2"/>
    <trip id="car142" depart="710.00" from="GowSt_1_1" to="HunSt_1_2"/>
    <trip id="car143" depart="715.00" from="GowSt_2_1" to="GowSt_2_2"/>
    <trip id="car144" depart="720.00" from="GowSt_2_1" to="GorSq_1_3"/>
    <trip id="car145" depart="725.00" from="RidGa_2_1" to="HunSt_1_2"/>
    <trip id="car146" depart="730.00" from="GowSt_1_1" to="HunSt_1_2"/>
    <trip id="car147" depart="735.00" from="GorSq_1_1" to="GorSq_1_3"/>
    <trip id="car148" depart="740.00" from="HunSt_1_1" to="TorPl_2_4"/>
    <trip id="car149" depart="745.00" from="GowSt_1_1" to="GorSq_2_3"/>
    <trip id="car150" depart="750.00" from="GowSt_2_1" to="GorSq_1_3"/>
    <trip id="car151" depart="755.00" from="GowSt_1_1" to="HunSt_1_2"/>
    <trip id="car152" depart="760.00" from="GowSt_1_1" to="TorPl_2_4"/>
    <trip id="car153" depart="765.00" from="GowSt_1_1" to="TorPl_2_4"/>
    <trip id="car154" depart="770.00" from="HunSt_1_1" to="HunSt_1_2"/>
    <trip id="car155" depart="775.00" from="HunSt_1_1" to="HunSt_1_2"/>
    <trip id="car156" depart="780.00" from="GowSt_1_1" to="GorSq_2_3"/>
    <trip id="car157" depart="785.00" from="CheMe_1_1" to="HunSt_1_2"/>
    <trip id="car158" depart="790.00" from="HunSt_1_1" to="HunSt_1_2"/>
    <trip id="car159" depart="795.00" from="GorSq_1_1" to="GorSq_1_3"/>
    <trip id="car160" depart="800.00" from="MalSt_2_1" to="GorSq_2_3"/>
    <trip id="car161" depart="805.00" from="RidGa_2_1" to="HunSt_1_2"/>
    <trip id="car162" depart="810.00" from="HunSt_1_1" to="TorPl_2_4"/>
    <trip id="car163" depart="815.00" from="GowSt_2_1" to="GowSt_2_2"/>
    <trip id="car164" depart="820.00" from="MalSt_2_1" to="GorSq_2_3"/>
    <trip id="car165" depart="825.00" from="RidGa_2_1" to="TorPl_2_4"/>
    <trip id="car166" depart="830.00" from="GowSt_1_1" to="GorSq_1_3"/>
    <trip id="car167" depart="835.00" from="HunSt_1_1" to="HunSt_1_2"/>
    <trip id="car168" depart="840.00" from="GowSt_2_1" to="GowSt_2_2"/>
    <trip id="car169" depart="845.00" from="CheMe_1_1" to="HunSt_1_2"/>
    <trip id="car170" depart="850.00" from="HunSt_1_1" to="TorPl_2_4"/>
    <trip id="car171" depart="855.00" from="GowSt_1_1" to="TorPl_2_4"/>
    <trip id="car172" depart="860.00" from="MalSt_2_1" to="GorSq_2_3"/>
    <trip id="car173" depart="865.00" from="HunSt_1_1" to="HunSt_1_2"/>
    <trip id="car174" depart="870.00" from="GowSt_2_1" to="HunSt_1_2"/>
    <trip id="car175" depart="875.00" from="RidGa_2_1" to="TorPl_2_4"/>
    <trip id="car176" depart="880.00" from="HunSt_1_1" to="HunSt_1_2"/>
    <trip id="car177" depart="885.00" from="RidGa_2_1" to="TorPl_2_4"/>
    <trip id="car178" depart="890.00" from="HunSt_1_1" to="HunSt_1_2"/>
    <trip id="car179" depart="895.00" from="GowSt_2_1" to="GowSt_2_2"/>
    <trip id="car180" depart="900.00" from="GowSt_1_1" to="TorPl_2_4"/>
    <trip id="car181" depart="905.00" from="GowSt_2_1" to="GowSt_2_2"/>
    <trip id="car182" depart="910.00" from="GowSt_1_1" to="GorSq_1_3"/>
    <trip id="car183" depart="915.00" from="HunSt_1_1" to="HunSt_1_2"/>
    <trip id="car184" depart="920.00" from="GowSt_2_1" to="GorSq_1_3"/>
    <trip id="car185" depart="925.00" from="GowSt_1_1" to="GorSq_1_3"/>
    <trip id="car186" depart="930.00" from="GowSt_2_1" to="TorPl_2_4"/>
    <trip id="car187" depart="935.00" from="GowSt_2_1" to="GorSq_1_3"/>
    <trip id="car188" depart="940.00" from="GowSt_1_1" to="GorSq_1_3"/>
    <trip id="car189" depart="945.00" from="MalSt_2_1" to="GorSq_2_3"/>
    <trip id="car190" depart="950.00" from="HunSt_1_1" to="TorPl_2_4"/>
    <trip id="car191" depart="955.00" from="GowSt_1_1" to="GorSq_1_3"/>
    <trip id="car192" depart="960.00" from="GowSt_1_1" to="GorSq_1_3"/>
    <trip id="car193" depart="965.00" from="RidGa_2_1" to="TorPl_2_4"/>
    <trip id="car194" depart="970.00" from="GowSt_1_1" to="HunSt_1_2"/>
    <trip id="car195" depart="975.00" from="GowSt_2_1" to="GorSq_2_3"/>
    <trip id="car196" depart="980.00" from="HunSt_1_1" to="TorPl_2_4"/>
    <trip id="car197" depart="985.00" from="MalSt_2_1" to="GorSq_1_3"/>
    <trip id="car198" depart="990.00" from="CheMe_1_1" to="HunSt_1_2"/>
    <trip id="car199" depart="995.00" from="GowSt_2_1" to="TorPl_2_4"/>
</routes>
