<?xml version="1.0" encoding="UTF-8"?>

<!-- generated on 2025-11-02 21:16:17.651055 by randomTrips.py v1_24_0+0000-b72eb3fabc8
<configuration>
    <net-file value="../networks/demo.net.xml"/>
    <output-trip-file value="../routes/demo/car.trips.xml"/>
    <route-file value="../routes/demo/car.rou.xml"/>
    <prefix value="car"/>
    <fringe-factor value="max"/>
    <end value="100.0"/>
    <period value="5.0"/>
</configuration>
-->

<!-- generated on 2025-11-02 21:16:17 by Eclipse SUMO duarouter Version 1.24.0
<duarouterConfiguration xmlns:xsi="http://www.w3.org/2001/XMLSchema-instance" xsi:noNamespaceSchemaLocation="http://sumo.dlr.de/xsd/duarouterConfiguration.xsd">

    <input>
        <net-file value="../networks/demo.net.xml"/>
        <route-files value="../routes/demo/car.trips.xml"/>
    </input>

    <output>
        <output-file value="../routes/demo/car.rou.xml"/>
        <alternatives-output value="NUL"/>
    </output>

    <time>
        <begin value="0"/>
        <end value="100.0"/>
    </time>

    <report>
        <no-warnings value="true"/>
        <ignore-errors value="true"/>
        <no-step-log value="true"/>
    </report>

</duarouterConfiguration>
-->

<routes xmlns:xsi="http://www.w3.org/2001/XMLSchema-instance" xsi:noNamespaceSchemaLocation="http://sumo.dlr.de/xsd/routes_file.xsd">
    <vehicle id="car0" depart="0.00">
        <route edges="GowSt_2_1 TorPl_1_2 BynPl_1_1 BynPl_1_2 BynPl_1_3 GorSq_1_2 GorSq_1_3"/>
    </vehicle>
    <vehicle id="car1" depart="5.00">
        <route edges="GowSt_1_1 TorPl_1_2 BynPl_1_1 BynPl_1_2 BynPl_1_3 GorSq_2_3"/>
    </vehicle>
    <vehicle id="car2" depart="10.00">
        <route edges="MalSt_2_1 BynPl_1_1 BynPl_1_2 BynPl_1_3 GorSq_1_2 GorSq_1_3"/>
    </vehicle>
    <vehicle id="car3" depart="15.00">
        <route edges="GowSt_2_1 TorPl_1_2 BynPl_1_1 BynPl_1_2 BynPl_1_3 GorSq_1_2 GorSq_1_3"/>
    </vehicle>
    <vehicle id="car4" depart="20.00">
        <route edges="GowSt_1_1 GowSt_1_2"/>
    </vehicle>
    <vehicle id="car5" depart="25.00">
        <route edges="GowSt_1_1 TorPl_1_2 BynPl_1_1 BynPl_1_2 BynPl_1_3 GorSq_1_2 GorSq_1_3"/>
    </vehicle>
    <vehicle id="car6" depart="30.00">
        <route edges="GowSt_1_1 GowSt_1_2"/>
    </vehicle>
    <vehicle id="car7" depart="35.00">
        <route edges="MalSt_2_1 BynPl_1_1 BynPl_1_2 BynPl_1_3 GorSq_1_2 GorSq_1_3"/>
    </vehicle>
    <vehicle id="car8" depart="40.00">
        <route edges="GowSt_2_1 TorPl_1_2 BynPl_1_1 BynPl_1_2 BynPl_1_3 GorSq_1_2 GorSq_1_3"/>
    </vehicle>
    <vehicle id="car9" depart="45.00">
        <route edges="MalSt_2_1 BynPl_1_1 BynPl_1_2 BynPl_1_3 GorSq_2_3"/>
    </vehicle>
    <vehicle id="car10" depart="50.00">
        <route edges="GowSt_1_1 TorPl_1_2 BynPl_1_1 BynPl_1_2 BynPl_1_3 GorSq_1_2 GorSq_1_3"/>
    </vehicle>
    <vehicle id="car11" depart="55.00">
        <route edges="GowSt_2_1 TorPl_2_2"/>
    </vehicle>
    <vehicle id="car12" depart="60.00">
        <route edges="MalSt_2_1 BynPl_1_1 BynPl_1_2 BynPl_1_3 GorSq_1_2 GorSq_1_3"/>
    </vehicle>
    <vehicle id="car13" depart="65.00">
        <route edges="GowSt_1_1 TorPl_1_2 BynPl_1_1 BynPl_1_2 BynPl_1_3 GorSq_2_3"/>
    </vehicle>
    <vehicle id="car14" depart="70.00">
        <route edges="GowSt_1_1 TorPl_1_2 BynPl_1_1 BynPl_1_2 BynPl_1_3 GorSq_2_3"/>
    </vehicle>
    <vehicle id="car15" depart="75.00">
        <route edges="GowSt_1_1 TorPl_1_2 BynPl_1_1 BynPl_1_2 BynPl_1_3 GorSq_2_3"/>
    </vehicle>
    <vehicle id="car16" depart="80.00">
        <route edges="GowSt_2_1 TorPl_1_2 BynPl_1_1 BynPl_1_2 BynPl_1_3 GorSq_2_3"/>
    </vehicle>
    <vehicle id="car17" depart="85.00">
        <route edges="GowSt_2_1 TorPl_1_2 BynPl_1_1 BynPl_1_2 BynPl_1_3 GorSq_2_3"/>
    </vehicle>
    <vehicle id="car18" depart="90.00">
        <route edges="GowSt_1_1 TorPl_2_2"/>
    </vehicle>
    <vehicle id="car19" depart="95.00">
        <route edges="GowSt_2_1 GowSt_2_2"/>
    </vehicle>
</routes>
