<?xml version="1.0" encoding="UTF-8"?>

<!-- generated on 2025-12-27T11:01:43.219804+00:00 by Eclipse SUMO netedit 1.25.0
-->

<additional xmlns:xsi="http://www.w3.org/2001/XMLSchema-instance" xsi:noNamespaceSchemaLocation="http://sumo.dlr.de/xsd/additional_file.xsd">
    <!-- Detectors -->
    <inductionLoop id="CJ_2_EB_2_1" lane="BynPl_1_1_1" pos="2.44" period="300.00" file="detector.CJ_2_EB_2_1.xml"/>
    <inductionLoop id="CJ_2_EB_2_2" lane="BynPl_1_1_2" pos="2.44" period="300.00" file="detector.CJ_2_EB_2_2.xml"/>
    <inductionLoop id="CJ_2_SB_1_1" lane="MalSt_1_1_1" pos="2.22" period="300.00" file="detector.CJ_2_SB_1_1.xml"/>
    <inductionLoop id="CJ_2_WB_2_1" lane="TorPl_2_1_1" pos="2.21" period="300.00" file="detector.CJ_2_WB_2_1.xml"/>
    <laneAreaDetector id="CJ_2_EB_1_1" lane="TorPl_1_4_1" pos="8.25" length="25.00" friendlyPos="1" period="300.00" file="detector.CJ_2_EB_1_1.xml"/>
    <laneAreaDetector id="CJ_2_EB_1_2" lane="TorPl_1_4_2" pos="8.25" length="25.00" friendlyPos="1" period="300.00" file="detector.CJ_2_EB_1_2.xml"/>
    <laneAreaDetector id="CJ_2_NB_1_1" lane="MalSt_2_1_1" pos="3.17" length="25.00" period="300.00" file="detector.CJ_2_NB_1_1.xml"/>
    <laneAreaDetector id="CJ_2_WB_1_1" lane="BynPl_2_3_1" pos="11.46" length="25.00" period="300.00" file="detector.CJ_2_WB_1_1.xml"/>
</additional>
