<?xml version="1.0" encoding="UTF-8"?>

<!-- generated on 2025-12-26T11:57:16.351780+00:00 by Eclipse SUMO netedit 1.25.0
<neteditConfiguration xmlns:xsi="http://www.w3.org/2001/XMLSchema-instance" xsi:noNamespaceSchemaLocation="http://sumo.dlr.de/xsd/neteditConfiguration.xsd">

    <input>
        <sumocfg-file value="simulation.sumocfg"/>
        <additional-files value="networks/crossing/detectors.add.xml"/>
        <sumo-net-file value="networks/crossing/zebra.net.xml"/>
    </input>

    <output>
        <output-file value="networks/crossing/zebra.net.xml"/>
    </output>

    <processing>
        <geometry.min-radius.fix.railways value="false"/>
        <geometry.avoid-overlap value="false"/>
        <geometry.max-grade.fix value="false"/>
        <offset.disable-normalization value="true"/>
        <lefthand value="1"/>
    </processing>

    <junctions>
        <no-internal-links value="false"/>
        <no-turnarounds value="true"/>
        <junctions.corner-detail value="5"/>
        <junctions.limit-turn-speed value="5.50"/>
        <rectangular-lane-cut value="0"/>
    </junctions>

    <pedestrian>
        <walkingareas value="0"/>
    </pedestrian>

    <netedit>
        <ignore.routeelements value="false"/>
    </netedit>

</neteditConfiguration>
-->

<net version="1.20" junctionCornerDetail="5" lefthand="true" limitTurnSpeed="5.50" avoidOverlap="0" xmlns:xsi="http://www.w3.org/2001/XMLSchema-instance" xsi:noNamespaceSchemaLocation="http://sumo.dlr.de/xsd/net_file.xsd">

    <location netOffset="0.00,0.00" convBoundary="60.14,-217.69,134.15,-158.60" origBoundary="-10000000000.00,-10000000000.00,10000000000.00,10000000000.00" projParameter="!"/>

    <edge id=":CJ_2_0" function="internal">
        <lane id=":CJ_2_0_0" index="0" allow="bicycle" speed="6.24" length="7.77" width="2.50" shape="98.85,-193.78 97.44,-192.27 95.85,-191.57 94.06,-191.68 92.09,-192.60"/>
    </edge>
    <edge id=":CJ_2_1" function="internal">
        <lane id=":CJ_2_1_0" index="0" disallow="pedestrian" speed="7.54" length="12.51" width="5.00" shape="99.47,-193.36 97.63,-189.93 97.14,-186.97 97.97,-184.47 100.14,-182.42"/>
    </edge>
    <edge id=":CJ_2_2" function="internal">
        <lane id=":CJ_2_2_0" index="0" allow="bicycle" speed="5.74" length="7.24" width="1.00" shape="102.21,-185.65 100.86,-186.87 100.30,-188.32 100.53,-190.01 101.54,-191.93"/>
    </edge>
    <edge id=":CJ_2_3" function="internal">
        <lane id=":CJ_2_3_0" index="0" allow="bicycle" speed="13.89" length="12.27" width="2.50" shape="102.21,-185.65 92.09,-192.60"/>
    </edge>
    <edge id=":CJ_2_4" function="internal">
        <lane id=":CJ_2_4_0" index="0" allow="bicycle" speed="4.20" length="7.43" width="2.50" shape="102.21,-185.65 99.91,-185.61 98.69,-184.88 98.54,-183.47 99.46,-181.37"/>
    </edge>
    <edge id=":CJ_2_5" function="internal">
        <lane id=":CJ_2_5_0" index="0" allow="bicycle" speed="13.89" length="12.27" width="2.50" shape="87.98,-186.18 98.12,-179.26"/>
    </edge>
    <edge id=":CJ_2_6" function="internal">
        <lane id=":CJ_2_6_0" index="0" allow="bicycle" speed="8.62" length="7.80" width="1.00" shape="87.98,-186.18 91.32,-184.93 94.69,-185.47 95.36,-185.93"/>
    </edge>
    <edge id=":CJ_2_7" function="internal">
        <lane id=":CJ_2_7_0" index="0" disallow="pedestrian" speed="13.89" length="12.27" width="5.00" shape="90.00,-189.33 100.14,-182.42"/>
    </edge>
    <edge id=":CJ_2_8" function="internal">
        <lane id=":CJ_2_8_0" index="0" allow="bicycle" speed="8.62" length="8.69" width="1.00" shape="95.36,-185.93 98.10,-187.80 101.54,-191.93"/>
    </edge>
    <edge id=":CJ_2_c0" function="crossing" crossingEdges="MalSt_1_1 MalSt_2_1">
        <lane id=":CJ_2_c0_0" index="0" allow="pedestrian" speed="2.78" length="5.01" width="4.00" shape="100.82,-190.00 96.69,-192.84" outlineShape="101.95,191.65 97.82,194.49 97.14,193.68 96.40,193.14 95.59,192.86 94.71,192.86 94.11,193.03 95.56,191.19 99.69,188.35 101.83,187.61 101.43,188.10 101.14,188.90 101.13,189.75 101.40,190.67"/>
    </edge>
    <edge id=":CJ_2_c1" function="crossing" crossingEdges="BynPl_1_1 BynPl_2_3">
        <lane id=":CJ_2_c1_0" index="0" allow="pedestrian" speed="2.78" length="10.07" width="4.00" shape="95.76,-179.29 101.18,-187.78" outlineShape="97.39,178.13 102.92,186.79 102.01,187.38 101.43,188.10 101.14,188.90 101.13,189.75 101.30,190.33 99.50,188.86 94.07,180.37"/>
    </edge>
    <edge id=":CJ_2_w0" function="walkingarea">
        <lane id=":CJ_2_w0_0" index="0" allow="pedestrian" speed="2.78" length="3.25" width="4.00" shape="92.76,-193.65 93.84,-195.33 96.17,-195.62 97.82,-194.49 97.14,-193.68 96.40,-193.14 95.59,-192.86 94.71,-192.86 93.77,-193.12"/>
    </edge>
    <edge id=":CJ_2_w1" function="walkingarea">
        <lane id=":CJ_2_w1_0" index="0" allow="pedestrian" speed="2.78" length="2.93" width="4.00" shape="101.95,-191.65 103.60,-190.52 103.95,-188.39 102.88,-186.70 102.01,-187.38 101.43,-188.10 101.14,-188.90 101.13,-189.75 101.40,-190.67"/>
    </edge>
    <edge id=":CJ_2_w2" function="walkingarea">
        <lane id=":CJ_2_w2_0" index="0" allow="pedestrian" speed="2.78" length="6.91" width="4.00" shape="94.07,-180.37 97.44,-178.21 96.37,-176.53 89.98,-178.84 88.31,-179.95 86.62,-181.08 86.22,-183.44 87.31,-185.12"/>
    </edge>

    <edge id="BynPl_1_1" from="CJ_2" to="J1" priority="-1" spreadType="center" shape="98.75,-180.64 129.93,-160.69">
        <lane id="BynPl_1_1_0" index="0" allow="pedestrian" speed="13.89" length="36.81" width="2.00" shape="96.90,-177.37 127.91,-157.53"/>
        <lane id="BynPl_1_1_1" index="1" allow="bicycle" speed="13.89" length="36.81" width="2.50" shape="98.12,-179.26 129.12,-159.43"/>
        <lane id="BynPl_1_1_2" index="2" disallow="pedestrian" speed="13.89" length="36.81" width="5.00" shape="100.14,-182.42 131.14,-162.59"/>
    </edge>
    <edge id="BynPl_2_3" from="J0" to="CJ_2" priority="-1" spreadType="center" shape="134.15,-166.65 102.96,-186.36">
        <lane id="BynPl_2_3_0" index="0" allow="pedestrian" speed="13.89" length="37.15" width="2.00" shape="134.82,-167.71 103.42,-187.55"/>
        <lane id="BynPl_2_3_1" index="1" allow="bicycle" speed="13.89" length="37.15" width="2.50" shape="133.62,-165.80 102.21,-185.65"/>
    </edge>
    <edge id="MalPl_1_1" from="EJ_13" to="CJ_2" priority="-1" spreadType="center" shape="75.38,-158.84 91.97,-183.61">
        <lane id="MalPl_1_1_0" index="0" allow="pedestrian" speed="13.89" length="25.07" width="2.00" shape="75.19,-158.56 89.14,-179.39"/>
    </edge>
    <edge id="MalPl_2_1" from="CJ_2" to="EJ_14" priority="-1" spreadType="center" shape="90.36,-184.86 73.49,-159.71">
        <lane id="MalPl_2_1_0" index="0" allow="pedestrian" speed="13.89" length="25.07" width="2.00" shape="87.45,-180.53 73.49,-159.71"/>
    </edge>
    <edge id="MalSt_1_1" from="CJ_2" to="EJ_8" priority="-3" spreadType="center" shape="102.18,-191.10 118.38,-214.66">
        <lane id="MalSt_1_1_0" index="0" allow="pedestrian" speed="13.89" length="28.73" width="2.00" shape="102.78,-191.08 119.05,-214.76"/>
        <lane id="MalSt_1_1_1" index="1" allow="bicycle" speed="13.89" length="28.73" width="1.00" shape="101.54,-191.93 117.82,-215.61"/>
    </edge>
    <edge id="MalSt_2_1" from="EJ_7" to="CJ_2" priority="-3" spreadType="center" shape="114.56,-217.17 98.56,-193.80">
        <lane id="MalSt_2_1_0" index="0" allow="pedestrian" speed="13.89" length="28.63" width="2.00" shape="113.17,-218.68 97.00,-195.06"/>
        <lane id="MalSt_2_1_1" index="1" disallow="pedestrian" speed="13.89" length="28.63" width="4.00" shape="115.65,-216.99 99.47,-193.36"/>
    </edge>
    <edge id="TorPl_1_4" from="J2" to="CJ_2" priority="-1" spreadType="center" shape="60.14,-205.93 88.77,-187.45">
        <lane id="TorPl_1_4_0" index="0" allow="pedestrian" speed="13.89" length="34.10" width="2.00" shape="58.11,-202.78 86.76,-184.28"/>
        <lane id="TorPl_1_4_1" index="1" allow="bicycle" speed="13.89" length="34.10" width="2.50" shape="59.33,-204.67 87.98,-186.18"/>
        <lane id="TorPl_1_4_2" index="2" disallow="pedestrian" speed="13.89" length="34.10" width="5.00" shape="61.36,-207.82 90.00,-189.33"/>
    </edge>
    <edge id="TorPl_2_1" from="CJ_2" to="J3" priority="-1" spreadType="center" shape="92.63,-193.44 63.80,-211.91">
        <lane id="TorPl_2_1_0" index="0" allow="pedestrian" speed="13.89" length="34.24" width="2.00" shape="93.30,-194.49 64.47,-212.96"/>
        <lane id="TorPl_2_1_1" index="1" allow="bicycle" speed="13.89" length="34.24" width="2.50" shape="92.09,-192.60 63.26,-211.07"/>
    </edge>

    <junction id="CJ_2" type="priority" x="95.03" y="-187.04" incLanes="MalSt_2_1_0 MalSt_2_1_1 BynPl_2_3_0 BynPl_2_3_1 MalPl_1_1_0 TorPl_1_4_0 TorPl_1_4_1 TorPl_1_4_2 :CJ_2_w1_0 :CJ_2_w2_0" intLanes=":CJ_2_0_0 :CJ_2_1_0 :CJ_2_2_0 :CJ_2_3_0 :CJ_2_4_0 :CJ_2_5_0 :CJ_2_8_0 :CJ_2_7_0 :CJ_2_c0_0 :CJ_2_c1_0" shape="96.17,-195.62 103.60,-190.52 103.23,-189.69 103.23,-189.32 103.35,-188.98 103.59,-188.67 103.96,-188.39 96.37,-176.53 94.64,-177.58 93.19,-178.36 91.99,-178.88 91.06,-179.13 90.38,-179.12 89.98,-178.83 86.62,-181.08 87.02,-182.00 87.01,-182.41 86.88,-182.78 86.62,-183.13 86.22,-183.44 93.84,-195.33 94.76,-194.94 95.17,-194.93 95.54,-195.04 95.87,-195.27">
        <request index="0" response="0000001000" foes="0100001000" cont="0"/>
        <request index="1" response="1011001000" foes="1111011000" cont="0"/>
        <request index="2" response="1100000000" foes="1101000000" cont="0"/>
        <request index="3" response="1000000000" foes="1001000011" cont="0"/>
        <request index="4" response="1010000010" foes="1010000010" cont="0"/>
        <request index="5" response="1000000000" foes="1000000000" cont="0"/>
        <request index="6" response="0110001100" foes="0110001110" cont="1"/>
        <request index="7" response="1000000000" foes="1001010010" cont="0"/>
        <request index="8" response="0000000011" foes="0001000111" cont="0"/>
        <request index="9" response="0000000000" foes="0010111110" cont="0"/>
    </junction>
    <junction id="EJ_13" type="dead_end" x="75.14" y="-158.60" incLanes="" intLanes="" shape="74.36,-159.12 76.03,-158.01"/>
    <junction id="EJ_14" type="dead_end" x="73.49" y="-159.71" incLanes="MalPl_2_1_0" intLanes="" shape="72.66,-160.27 74.32,-159.15"/>
    <junction id="EJ_7" type="dead_end" x="114.62" y="-217.69" incLanes="" intLanes="" shape="117.30,-215.86 112.35,-219.25"/>
    <junction id="EJ_8" type="dead_end" x="118.44" y="-215.18" incLanes="MalSt_1_1_0 MalSt_1_1_1" intLanes="" shape="119.88,-214.19 117.41,-215.89"/>
    <junction id="J0" type="dead_end" x="134.15" y="-166.65" incLanes="" intLanes="" shape="132.95,-164.75 135.35,-168.55"/>
    <junction id="J1" type="dead_end" x="129.93" y="-160.69" incLanes="BynPl_1_1_0 BynPl_1_1_1 BynPl_1_1_2" intLanes="" shape="127.37,-156.69 132.49,-164.69"/>
    <junction id="J2" type="dead_end" x="60.14" y="-205.93" incLanes="" intLanes="" shape="62.72,-209.92 57.56,-201.94"/>
    <junction id="J3" type="dead_end" x="63.80" y="-211.91" incLanes="TorPl_2_1_0 TorPl_2_1_1" intLanes="" shape="65.01,-213.80 62.59,-210.02"/>

    <junction id=":CJ_2_8_0" type="internal" x="95.36" y="-185.93" incLanes=":CJ_2_6_0 BynPl_2_3_1" intLanes=":CJ_2_1_0 :CJ_2_2_0 :CJ_2_3_0 :CJ_2_7_0 :CJ_2_c0_0"/>

    <connection from="BynPl_2_3" to="MalSt_1_1" fromLane="1" toLane="1" via=":CJ_2_2_0" dir="l" state="m"/>
    <connection from="BynPl_2_3" to="TorPl_2_1" fromLane="1" toLane="1" via=":CJ_2_3_0" dir="s" state="m"/>
    <connection from="BynPl_2_3" to="BynPl_1_1" fromLane="1" toLane="2" via=":CJ_2_4_0" dir="T" state="m"/>
    <connection from="MalSt_2_1" to="TorPl_2_1" fromLane="1" toLane="1" via=":CJ_2_0_0" dir="l" state="m"/>
    <connection from="MalSt_2_1" to="BynPl_1_1" fromLane="1" toLane="2" via=":CJ_2_1_0" dir="r" state="m"/>
    <connection from="TorPl_1_4" to="BynPl_1_1" fromLane="1" toLane="1" via=":CJ_2_5_0" dir="s" state="m"/>
    <connection from="TorPl_1_4" to="MalSt_1_1" fromLane="1" toLane="1" via=":CJ_2_6_0" dir="r" state="m"/>
    <connection from="TorPl_1_4" to="BynPl_1_1" fromLane="2" toLane="2" via=":CJ_2_7_0" dir="s" state="m"/>

    <connection from=":CJ_2_0" to="TorPl_2_1" fromLane="0" toLane="1" dir="l" state="M"/>
    <connection from=":CJ_2_1" to="BynPl_1_1" fromLane="0" toLane="2" dir="r" state="M"/>
    <connection from=":CJ_2_2" to="MalSt_1_1" fromLane="0" toLane="1" dir="l" state="M"/>
    <connection from=":CJ_2_3" to="TorPl_2_1" fromLane="0" toLane="1" dir="s" state="M"/>
    <connection from=":CJ_2_4" to="BynPl_1_1" fromLane="0" toLane="2" dir="T" state="M"/>
    <connection from=":CJ_2_5" to="BynPl_1_1" fromLane="0" toLane="1" dir="s" state="M"/>
    <connection from=":CJ_2_6" to="MalSt_1_1" fromLane="0" toLane="1" via=":CJ_2_8_0" dir="r" state="m"/>
    <connection from=":CJ_2_8" to="MalSt_1_1" fromLane="0" toLane="1" dir="r" state="m"/>
    <connection from=":CJ_2_7" to="BynPl_1_1" fromLane="0" toLane="2" dir="s" state="M"/>

    <connection from=":CJ_2_c0" to=":CJ_2_w0" fromLane="0" toLane="0" dir="s" state="M"/>
    <connection from=":CJ_2_c1" to=":CJ_2_w1" fromLane="0" toLane="0" dir="s" state="M"/>
    <connection from=":CJ_2_w0" to="TorPl_2_1" fromLane="0" toLane="0" dir="s" state="M"/>
    <connection from="MalSt_2_1" to=":CJ_2_w0" fromLane="0" toLane="0" dir="s" state="M"/>
    <connection from=":CJ_2_w1" to=":CJ_2_c0" fromLane="0" toLane="0" dir="s" state="m"/>
    <connection from=":CJ_2_w1" to="MalSt_1_1" fromLane="0" toLane="0" dir="s" state="M"/>
    <connection from="BynPl_2_3" to=":CJ_2_w1" fromLane="0" toLane="0" dir="s" state="M"/>
    <connection from=":CJ_2_w2" to=":CJ_2_c1" fromLane="0" toLane="0" dir="s" state="M"/>
    <connection from=":CJ_2_w2" to="BynPl_1_1" fromLane="0" toLane="0" dir="s" state="M"/>
    <connection from=":CJ_2_w2" to="MalPl_2_1" fromLane="0" toLane="0" dir="s" state="M"/>
    <connection from="MalPl_1_1" to=":CJ_2_w2" fromLane="0" toLane="0" dir="s" state="M"/>
    <connection from="TorPl_1_4" to=":CJ_2_w2" fromLane="0" toLane="0" dir="s" state="M"/>
</net>
